created on 2024-09-03 21:16                                     ! RUNDES        
eastcoast_95d_ll_select.grd                                     ! RUNID         
1                                                               ! NFOVER        
1                                                               ! NABOUT        
100                                                             ! NSCREEN       
0                                                               ! IHOT          
2                                                               ! ICS           
511113                                                          ! IM            
1                                                               ! NOLIBF        
2                                                               ! NOLIFA        
1                                                               ! NOLICA        
1                                                               ! NOLICAT       
2                                                               ! NWP           
primitive_weighting_in_continuity_equation                                      
mannings_n_at_sea_floor                                                         
1                                                               ! NCOR          
1                                                               ! NTIP          
8                                                               ! NWS           
1                                                               ! NRAMP         
9.81                                                            ! G             
-3                                                              ! TAU0          
80.142686                                                       ! DTDP          
0                                                               ! STATIM        
0                                                               ! REFTIM        
2016 09 28 18 1 0.7 1                                           ! IREFYR IREFMO 
11                                                              ! RNDAY         
15                                                              ! DRAMP         
0.5 0.5 0                                                       ! A00 B00 C00   
0.01 0 0 0.01                                                   ! H0 NODEDRYMIN 
-76.725105 26.58329                                             ! SLAM0 SFEA0   
0.0025                                                          ! FFACTOR       
-0.2                                                            ! smagorinsky co
0                                                               ! CORI          
8                                                               ! NTIF          
Q1                                                                              
0.019256 6.49585E-05 0.695 0.820194 311.931                                     
O1                                                                              
0.100514 6.75977E-05 0.695 0.820194 61.9297                                     
P1                                                                              
0.046843 7.25229E-05 0.706 1 352.055                                            
K1                                                                              
0.141565 7.29212E-05 0.736 0.890227 184.553                                     
N2                                                                              
0.046398 0.00013788 0.693 1.03569 134.612                                       
M2                                                                              
0.242334 0.000140519 0.693 1.03569 244.61                                       
S2                                                                              
0.112841 0.000145444 0.693 1 180                                                
K2                                                                              
0.030704 0.000145842 0.693 0.760365 189.728                                     
8                                                                               
Q1                                                                              
6.49585E-05 0.820194 311.931                                                    
O1                                                                              
6.75977E-05 0.820194 61.9297                                                    
P1                                                                              
7.25229E-05 1 352.055                                                           
K1                                                                              
7.29212E-05 0.890227 184.553                                                    
N2                                                                              
0.00013788 1.03569 134.612                                                      
M2                                                                              
0.000140519 1.03569 244.61                                                      
S2                                                                              
0.000145444 1 180                                                               
K2                                                                              
0.000145842 0.760365 189.728                                                    
Q1                                                                              
1.00000000e-02 1.46710436e+02                                                   
1.00330656e-02 1.46335646e+02                                                   
1.01330743e-02 1.45825158e+02                                                   
1.02136302e-02 1.45175552e+02                                                   
1.02999997e-02 1.44272808e+02                                                   
1.03622685e-02 1.42419118e+02                                                   
1.05790610e-02 1.43260387e+02                                                   
1.07627693e-02 1.43880958e+02                                                   
1.10126474e-02 1.44174658e+02                                                   
1.13317455e-02 1.43473502e+02                                                   
1.11597105e-02 1.42978452e+02                                                   
1.03246251e-02 1.44864857e+02                                                   
8.61820638e-03 1.54327340e+02                                                   
7.41039190e-03 1.60335643e+02                                                   
6.32684243e-03 1.63770507e+02                                                   
5.16130644e-03 1.67495342e+02                                                   
4.29368319e-03 1.69485595e+02                                                   
3.51820959e-03 1.73856449e+02                                                   
2.81849116e-03 1.82899054e+02                                                   
2.48205675e-03 1.89679787e+02                                                   
2.30451439e-03 2.00790199e+02                                                   
2.20055604e-03 2.12469846e+02                                                   
2.20050564e-03 2.24639210e+02                                                   
2.24331040e-03 2.37557357e+02                                                   
2.41211515e-03 2.51346800e+02                                                   
2.73912960e-03 2.61440938e+02                                                   
3.11635519e-03 2.70556405e+02                                                   
3.64884797e-03 2.76569736e+02                                                   
4.22001510e-03 2.80378220e+02                                                   
4.81167196e-03 2.83123224e+02                                                   
5.46033117e-03 2.84307429e+02                                                   
6.11115113e-03 2.85733611e+02                                                   
6.75330397e-03 2.86939124e+02                                                   
7.21802547e-03 2.86977042e+02                                                   
6.99999988e-03 2.85910004e+02                                                   
O1                                                                              
5.12745486e-02 1.76417760e+02                                                   
5.14953882e-02 1.76031992e+02                                                   
5.19778757e-02 1.75690949e+02                                                   
5.25934287e-02 1.75430083e+02                                                   
5.34303820e-02 1.75286336e+02                                                   
5.48041601e-02 1.75501503e+02                                                   
5.44202211e-02 1.74873182e+02                                                   
5.40034019e-02 1.74394986e+02                                                   
5.36865840e-02 1.73799811e+02                                                   
5.33171980e-02 1.72858942e+02                                                   
4.73736178e-02 1.72766531e+02                                                   
4.17069632e-02 1.74645646e+02                                                   
3.58203562e-02 1.80898866e+02                                                   
3.02523022e-02 1.81609955e+02                                                   
2.52434082e-02 1.83085652e+02                                                   
1.87446153e-02 1.88115716e+02                                                   
1.33670136e-02 1.99445839e+02                                                   
9.46113917e-03 2.14649305e+02                                                   
7.32377913e-03 2.37271661e+02                                                   
6.45694552e-03 2.52726077e+02                                                   
6.96266091e-03 2.74480260e+02                                                   
7.93503692e-03 2.91073710e+02                                                   
9.49177450e-03 3.05098993e+02                                                   
1.14851873e-02 3.13991491e+02                                                   
1.38584640e-02 3.19631825e+02                                                   
1.64962272e-02 3.22571800e+02                                                   
1.91218526e-02 3.25575590e+02                                                   
2.19410209e-02 3.27370623e+02                                                   
2.50541458e-02 3.28493268e+02                                                   
2.84048326e-02 3.29315644e+02                                                   
3.29788732e-02 3.29668225e+02                                                   
3.76586378e-02 3.30153933e+02                                                   
4.23977693e-02 3.30179249e+02                                                   
4.55604239e-02 3.29098689e+02                                                   
4.38999987e-02 3.28829987e+02                                                   
P1                                                                              
2.23414778e-02 1.73427968e+02                                                   
2.26311615e-02 1.73138092e+02                                                   
2.28389373e-02 1.72841103e+02                                                   
2.31467138e-02 1.72570817e+02                                                   
2.33999991e-02 1.72293837e+02                                                   
2.36622677e-02 1.72029378e+02                                                   
2.39790626e-02 1.71572929e+02                                                   
2.42661719e-02 1.71053144e+02                                                   
2.45457244e-02 1.70424791e+02                                                   
2.48158730e-02 1.69831683e+02                                                   
2.46783619e-02 1.68208585e+02                                                   
2.33529072e-02 1.68119172e+02                                                   
1.74536325e-02 1.70006255e+02                                                   
1.57766401e-02 1.69647915e+02                                                   
1.46014719e-02 1.66807022e+02                                                   
1.34943949e-02 1.62823256e+02                                                   
1.24169147e-02 1.59053896e+02                                                   
1.11968123e-02 1.54356564e+02                                                   
1.00428815e-02 1.49010512e+02                                                   
9.52283598e-03 1.45515542e+02                                                   
9.04425913e-03 1.41641745e+02                                                   
8.56090163e-03 1.37131836e+02                                                   
8.09629422e-03 1.31933379e+02                                                   
7.58021107e-03 1.24940299e+02                                                   
7.12430636e-03 1.16893530e+02                                                   
6.83182327e-03 1.07621826e+02                                                   
6.59907366e-03 9.75962084e+01                                                   
6.62474164e-03 8.70657664e+01                                                   
6.89794641e-03 7.72651159e+01                                                   
7.28423439e-03 6.81513473e+01                                                   
7.95029445e-03 5.96780686e+01                                                   
8.70894003e-03 5.11353678e+01                                                   
9.53595830e-03 4.36617986e+01                                                   
9.96901743e-03 3.85751606e+01                                                   
9.59999979e-03 3.94399986e+01                                                   
K1                                                                              
6.02244344e-02 1.67016680e+02                                                   
6.11604204e-02 1.66581389e+02                                                   
6.19448005e-02 1.66442406e+02                                                   
6.25934287e-02 1.66439043e+02                                                   
6.32758913e-02 1.66528198e+02                                                   
6.39914338e-02 1.66667547e+02                                                   
6.47250283e-02 1.66824644e+02                                                   
6.54586244e-02 1.66926516e+02                                                   
6.63717880e-02 1.66624101e+02                                                   
6.74962704e-02 1.65881469e+02                                                   
6.23280031e-02 1.62096695e+02                                                   
5.58248584e-02 1.58981138e+02                                                   
4.63070706e-02 1.57729582e+02                                                   
4.32526121e-02 1.50495580e+02                                                   
4.06191086e-02 1.43501231e+02                                                   
3.74232934e-02 1.32984205e+02                                                   
3.46647504e-02 1.21921782e+02                                                   
3.36662941e-02 1.12492306e+02                                                   
3.38023867e-02 1.04848403e+02                                                   
3.40360395e-02 1.00149996e+02                                                   
3.46497011e-02 9.50509085e+01                                                   
3.54278652e-02 9.00062256e+01                                                   
3.64513642e-02 8.48605674e+01                                                   
3.75433330e-02 8.00471817e+01                                                   
3.88520580e-02 7.55639222e+01                                                   
4.04252699e-02 7.12868954e+01                                                   
4.20677521e-02 6.68828869e+01                                                   
4.40590433e-02 6.26513579e+01                                                   
4.64216221e-02 5.84895007e+01                                                   
4.90316424e-02 5.43162796e+01                                                   
5.25948056e-02 4.96084569e+01                                                   
5.62802247e-02 4.47775511e+01                                                   
6.02997417e-02 4.05153194e+01                                                   
6.24948396e-02 3.70933978e+01                                                   
6.07000017e-02 3.81899986e+01                                                   
N2                                                                              
8.89913624e-02 3.29538861e+02                                                   
8.97934866e-02 3.29049684e+02                                                   
9.06168137e-02 3.28526497e+02                                                   
9.15265147e-02 3.27973878e+02                                                   
9.22420760e-02 3.27371544e+02                                                   
9.26032464e-02 3.26661433e+02                                                   
9.39622109e-02 3.25992047e+02                                                   
9.51834186e-02 3.25245905e+02                                                   
9.62710177e-02 3.24438393e+02                                                   
9.69137601e-02 3.23818395e+02                                                   
9.83343548e-02 3.22591470e+02                                                   
1.02385899e-01 3.22648422e+02                                                   
1.10007785e-01 3.25646564e+02                                                   
1.11948692e-01 3.26095679e+02                                                   
1.12297026e-01 3.26124740e+02                                                   
1.12612538e-01 3.25976512e+02                                                   
1.13792142e-01 3.25904591e+02                                                   
1.14909086e-01 3.25805266e+02                                                   
1.15633069e-01 3.25544396e+02                                                   
1.15910437e-01 3.25325188e+02                                                   
1.15964455e-01 3.25049783e+02                                                   
1.15940103e-01 3.24769231e+02                                                   
1.15881123e-01 3.24505425e+02                                                   
1.15736434e-01 3.24249359e+02                                                   
1.15527940e-01 3.23978532e+02                                                   
1.15409773e-01 3.23732795e+02                                                   
1.15189875e-01 3.23473902e+02                                                   
1.14788655e-01 3.23173752e+02                                                   
1.14356496e-01 3.22832587e+02                                                   
1.13914489e-01 3.22467592e+02                                                   
1.13191810e-01 3.21939496e+02                                                   
1.12406718e-01 3.21424191e+02                                                   
1.11569990e-01 3.20958029e+02                                                   
1.10833694e-01 3.20722333e+02                                                   
1.10799999e-01 3.20880005e+02                                                   
M2                                                                              
4.08293701e-01 3.50004684e+02                                                   
4.08288063e-01 3.49586002e+02                                                   
4.10650427e-01 3.49055909e+02                                                   
4.13467142e-01 3.48457837e+02                                                   
4.16544917e-01 3.47772972e+02                                                   
4.19213902e-01 3.46880134e+02                                                   
4.24299512e-01 3.46341648e+02                                                   
4.29401329e-01 3.45714726e+02                                                   
4.34277059e-01 3.45034879e+02                                                   
4.35711688e-01 3.44408533e+02                                                   
4.47174100e-01 3.44524914e+02                                                   
4.63847271e-01 3.45480330e+02                                                   
5.00603512e-01 3.47494926e+02                                                   
5.07986017e-01 3.47845091e+02                                                   
5.14043937e-01 3.47990006e+02                                                   
5.20517453e-01 3.48049436e+02                                                   
5.28141741e-01 3.48209993e+02                                                   
5.33748210e-01 3.48124105e+02                                                   
5.37063928e-01 3.47742205e+02                                                   
5.38481853e-01 3.47535116e+02                                                   
5.39402417e-01 3.47337705e+02                                                   
5.40055520e-01 3.47141013e+02                                                   
5.40596164e-01 3.46969291e+02                                                   
5.40374291e-01 3.46756456e+02                                                   
5.39824346e-01 3.46521561e+02                                                   
5.38760096e-01 3.46278321e+02                                                   
5.37472061e-01 3.46041444e+02                                                   
5.35782561e-01 3.45785256e+02                                                   
5.33799128e-01 3.45501217e+02                                                   
5.31579713e-01 3.45189170e+02                                                   
5.27845596e-01 3.44772076e+02                                                   
5.23866248e-01 3.44360039e+02                                                   
5.19696781e-01 3.43975560e+02                                                   
5.14991014e-01 3.43733739e+02                                                   
5.16500015e-01 3.43929993e+02                                                   
S2                                                                              
9.85921435e-02 1.68840606e+01                                                   
9.91961927e-02 1.65587069e+01                                                   
9.98786492e-02 1.61995793e+01                                                   
1.00494179e-01 1.58235686e+01                                                   
1.01109703e-01 1.54254193e+01                                                   
1.01599998e-01 1.50278487e+01                                                   
1.02337903e-01 1.45017840e+01                                                   
1.03088304e-01 1.39499101e+01                                                   
1.03792219e-01 1.33900810e+01                                                   
1.04231744e-01 1.29894776e+01                                                   
1.06301612e-01 1.25366495e+01                                                   
1.11661462e-01 1.33010792e+01                                                   
1.21763513e-01 1.72810028e+01                                                   
1.24146870e-01 1.81555944e+01                                                   
1.24871664e-01 1.85258484e+01                                                   
1.25749848e-01 1.87107164e+01                                                   
1.27599183e-01 1.89666845e+01                                                   
1.29263581e-01 1.91580259e+01                                                   
1.30488812e-01 1.91471487e+01                                                   
1.30990373e-01 1.90705555e+01                                                   
1.31162652e-01 1.89624074e+01                                                   
1.31232039e-01 1.88579082e+01                                                   
1.31282679e-01 1.87799751e+01                                                   
1.31256235e-01 1.87175090e+01                                                   
1.31163970e-01 1.86655518e+01                                                   
1.31132858e-01 1.86296961e+01                                                   
1.30990494e-01 1.85899004e+01                                                   
1.30576409e-01 1.85179374e+01                                                   
1.30046300e-01 1.84188926e+01                                                   
1.29454731e-01 1.82616271e+01                                                   
1.28245709e-01 1.79044114e+01                                                   
1.26960363e-01 1.75396765e+01                                                   
1.25744013e-01 1.72120274e+01                                                   
1.24865946e-01 1.70991393e+01                                                   
1.25000000e-01 1.72299995e+01                                                   
K2                                                                              
2.49084057e-02 1.71157426e+01                                                   
2.50980959e-02 1.68550206e+01                                                   
2.52058630e-02 1.65507512e+01                                                   
2.53136301e-02 1.62216230e+01                                                   
2.54213980e-02 1.58642501e+01                                                   
2.54708340e-02 1.54720156e+01                                                   
2.56459666e-02 1.50176683e+01                                                   
2.57999992e-02 1.45195699e+01                                                   
2.59795695e-02 1.40093796e+01                                                   
2.60828006e-02 1.36443966e+01                                                   
2.66664696e-02 1.29282007e+01                                                   
2.80740210e-02 1.38471714e+01                                                   
3.02578731e-02 1.85006739e+01                                                   
3.08610920e-02 1.93992687e+01                                                   
3.10408006e-02 1.96860714e+01                                                   
3.12795358e-02 1.98700874e+01                                                   
3.17091368e-02 2.03275240e+01                                                   
3.21243476e-02 2.07209220e+01                                                   
3.24271697e-02 2.08396912e+01                                                   
3.25393144e-02 2.08163303e+01                                                   
3.25984951e-02 2.07485232e+01                                                   
3.26331479e-02 2.06809572e+01                                                   
3.26331647e-02 2.06604514e+01                                                   
3.26331815e-02 2.06614231e+01                                                   
3.25999999e-02 2.06761502e+01                                                   
3.25999999e-02 2.07443035e+01                                                   
3.25593055e-02 2.07991630e+01                                                   
3.24409777e-02 2.08193050e+01                                                   
3.23226498e-02 2.08224176e+01                                                   
3.22043219e-02 2.07682174e+01                                                   
3.18009783e-02 2.04757364e+01                                                   
3.14029975e-02 2.01820242e+01                                                   
3.10566764e-02 1.99726908e+01                                                   
3.08161560e-02 1.99710598e+01                                                   
3.08999991e-02 2.00599995e+01                                                   
110                                                             ! ANGINN        
           0   0.0000000000000000        0.0000000000000000                0
       0                                                                ! NSTAM 
           0   0.0000000000000000        0.0000000000000000                0
       0                                                                ! NSTAE 
           0   0.0000000000000000        0.0000000000000000                0
       0                                                                ! NSTAV 
          -3   0.0000000000000000        15.000000000000000               20
          -3   0.0000000000000000        15.000000000000000               20
          -3   0.0000000000000000        15.000000000000000               20
0                                                               ! NFREQ         
0 0 0 0                                                         ! THAS THAF NHAI
0 0 0 0                                                         ! NHASE NHASV NH
5 16171                                                         ! NHSTAR NHSINC 
1 0 1E-08 25                                                    ! ITITER ISLDIA 
 ! NCPROJ
 ! NCINST
 ! NCSOUR
 ! NCHIST
 ! NCREF