created on 2024-09-05 15:21                                     ! RUNDES        
eastcoast_95d_ll_select.grd                                     ! RUNID         
1                                                               ! NFOVER        
1                                                               ! NABOUT        
100                                                             ! NSCREEN       
0                                                               ! IHOT          
2                                                               ! ICS           
511113                                                          ! IM            
1                                                               ! NOLIBF        
2                                                               ! NOLIFA        
1                                                               ! NOLICA        
1                                                               ! NOLICAT       
2                                                               ! NWP           
primitive_weighting_in_continuity_equation                                      
mannings_n_at_sea_floor                                                         
1                                                               ! NCOR          
1                                                               ! NTIP          
0                                                               ! NWS           
1                                                               ! NRAMP         
9.81                                                            ! G             
-3                                                              ! TAU0          
80.142686                                                       ! DTDP          
0                                                               ! STATIM        
0                                                               ! REFTIM        
11                                                              ! RNDAY         
15                                                              ! DRAMP         
0.5 0.5 0                                                       ! A00 B00 C00   
0.01 0 0 0.01                                                   ! H0 NODEDRYMIN 
-76.725105 26.58329                                             ! SLAM0 SFEA0   
0.0025                                                          ! FFACTOR       
-0.2                                                            ! smagorinsky co
0                                                               ! CORI          
8                                                               ! NTIF          
Q1                                                                              
0.019256 6.49585E-05 0.695 0.820117 311.808                                     
O1                                                                              
0.100514 6.75977E-05 0.695 0.820117 61.918                                      
P1                                                                              
0.046843 7.25229E-05 0.706 1 352.055                                            
K1                                                                              
0.141565 7.29212E-05 0.736 0.89018 184.562                                      
N2                                                                              
0.046398 0.00013788 0.693 1.0357 134.503                                        
M2                                                                              
0.242334 0.000140519 0.693 1.0357 244.612                                       
S2                                                                              
0.112841 0.000145444 0.693 1 180                                                
K2                                                                              
0.030704 0.000145842 0.693 0.760292 189.744                                     
8                                                                               
Q1                                                                              
6.49585E-05 0.820117 311.808                                                    
O1                                                                              
6.75977E-05 0.820117 61.918                                                     
P1                                                                              
7.25229E-05 1 352.055                                                           
K1                                                                              
7.29212E-05 0.89018 184.562                                                     
N2                                                                              
0.00013788 1.0357 134.503                                                       
M2                                                                              
0.000140519 1.0357 244.612                                                      
S2                                                                              
0.000145444 1 180                                                               
K2                                                                              
0.000145842 0.760292 189.744                                                    
Q1                                                                              
1.10000002e-02 1.86467798e+02                                                   
1.08905307e-02 1.85029654e+02                                                   
1.07655341e-02 1.83607847e+02                                                   
1.05999994e-02 1.82082514e+02                                                   
1.04999995e-02 1.80251787e+02                                                   
1.03732132e-02 1.78684586e+02                                                   
1.01999998e-02 1.76899875e+02                                                   
1.00366552e-02 1.74950804e+02                                                   
1.00000000e-02 1.73161333e+02                                                   
9.90000010e-03 1.71377985e+02                                                   
9.80000019e-03 1.69519207e+02                                                   
9.67141854e-03 1.67423980e+02                                                   
9.63308075e-03 1.65701571e+02                                                   
9.59999979e-03 1.63842832e+02                                                   
9.53311105e-03 1.61996134e+02                                                   
9.43311594e-03 1.59718064e+02                                                   
9.49999988e-03 1.58717908e+02                                                   
9.49999988e-03 1.57281036e+02                                                   
9.49999988e-03 1.55589594e+02                                                   
9.49999988e-03 1.53352067e+02                                                   
9.59999979e-03 1.52221412e+02                                                   
9.63307915e-03 1.50820821e+02                                                   
9.73308585e-03 1.49316351e+02                                                   
9.80000019e-03 1.46817109e+02                                                   
9.83308496e-03 1.46977449e+02                                                   
9.90000010e-03 1.46976596e+02                                                   
O1                                                                              
5.48397994e-02 2.13382030e+02                                                   
5.37905313e-02 2.11651145e+02                                                   
5.30986178e-02 2.10217843e+02                                                   
5.26331031e-02 2.08858795e+02                                                   
5.19544475e-02 2.07262751e+02                                                   
5.03464269e-02 2.05597896e+02                                                   
4.91429856e-02 2.03996836e+02                                                   
4.81395490e-02 2.02770226e+02                                                   
4.73361273e-02 2.00775850e+02                                                   
4.66355968e-02 1.98634918e+02                                                   
4.61200354e-02 1.96939427e+02                                                   
4.55044740e-02 1.96157866e+02                                                   
4.53661636e-02 1.93098190e+02                                                   
4.53662148e-02 1.90488637e+02                                                   
4.53662244e-02 1.88432758e+02                                                   
4.54317036e-02 1.86348341e+02                                                   
4.59417609e-02 1.85344732e+02                                                   
4.63849350e-02 1.84284886e+02                                                   
4.68641727e-02 1.83498447e+02                                                   
4.70992076e-02 1.83975761e+02                                                   
4.77951596e-02 1.81380805e+02                                                   
4.85469027e-02 1.79666821e+02                                                   
4.96462877e-02 1.78626871e+02                                                   
5.30175659e-02 1.77906042e+02                                                   
5.19460110e-02 1.77357315e+02                                                   
5.12474417e-02 1.76852908e+02                                                   
P1                                                                              
2.17699015e-02 2.16764297e+02                                                   
2.11905293e-02 2.14944130e+02                                                   
2.07655329e-02 2.13250618e+02                                                   
2.04331012e-02 2.11521370e+02                                                   
2.00068752e-02 2.09372472e+02                                                   
1.95732140e-02 2.07094649e+02                                                   
1.92330971e-02 2.04741679e+02                                                   
1.89697734e-02 2.02395044e+02                                                   
1.87361280e-02 2.00021512e+02                                                   
1.86024825e-02 1.97623346e+02                                                   
1.85330850e-02 1.95349302e+02                                                   
1.84946922e-02 1.93173205e+02                                                   
1.85330810e-02 1.90773000e+02                                                   
1.85331066e-02 1.88482086e+02                                                   
1.87331112e-02 1.86512615e+02                                                   
1.89331158e-02 1.84732956e+02                                                   
1.91086357e-02 1.83077513e+02                                                   
1.93331318e-02 1.81594590e+02                                                   
1.96310740e-02 1.80157760e+02                                                   
1.99330697e-02 1.78895218e+02                                                   
2.03620845e-02 1.77465057e+02                                                   
2.08138232e-02 1.76227741e+02                                                   
2.11931245e-02 1.75266337e+02                                                   
2.16724256e-02 1.74523758e+02                                                   
2.19290245e-02 1.74118660e+02                                                   
2.21517931e-02 1.73753933e+02                                                   
K1                                                                              
6.03097028e-02 2.16830430e+02                                                   
5.87141252e-02 2.14581048e+02                                                   
5.75641503e-02 2.12590291e+02                                                   
5.67067401e-02 2.10783999e+02                                                   
5.55944122e-02 2.08444459e+02                                                   
5.38527177e-02 2.05132811e+02                                                   
5.25876892e-02 2.02125704e+02                                                   
5.16726656e-02 1.99386683e+02                                                   
5.10023622e-02 1.97274282e+02                                                   
5.04993459e-02 1.94913447e+02                                                   
5.05992554e-02 1.90937488e+02                                                   
5.07991664e-02 1.87882998e+02                                                   
5.13307379e-02 1.85103314e+02                                                   
5.22020276e-02 1.83037294e+02                                                   
5.30824806e-02 1.81237135e+02                                                   
5.31993481e-02 1.78320176e+02                                                   
5.36748851e-02 1.76479896e+02                                                   
5.43036055e-02 1.75077238e+02                                                   
5.49952464e-02 1.74138444e+02                                                   
5.55764856e-02 1.74966300e+02                                                   
5.66282343e-02 1.71535430e+02                                                   
5.77469034e-02 1.69301690e+02                                                   
5.86862485e-02 1.68015627e+02                                                   
5.95055163e-02 1.67176446e+02                                                   
5.98951944e-02 1.66928983e+02                                                   
6.01848730e-02 1.66830123e+02                                                   
N2                                                                              
2.61085804e-02 3.17473470e+02                                                   
2.98638705e-02 3.21413440e+02                                                   
3.32045465e-02 3.24186192e+02                                                   
3.65141520e-02 3.26490365e+02                                                   
4.03972458e-02 3.28550731e+02                                                   
4.39985467e-02 3.29603756e+02                                                   
4.77358214e-02 3.30705745e+02                                                   
5.15463065e-02 3.31707368e+02                                                   
5.46511779e-02 3.32205232e+02                                                   
5.74887616e-02 3.32558430e+02                                                   
6.03299280e-02 3.32838227e+02                                                   
6.32359329e-02 3.33058249e+02                                                   
6.58921439e-02 3.33402444e+02                                                   
6.85033831e-02 3.33606962e+02                                                   
7.07667481e-02 3.33791607e+02                                                   
7.27618782e-02 3.34094029e+02                                                   
7.47927836e-02 3.33780598e+02                                                   
7.65554061e-02 3.33651397e+02                                                   
7.82932217e-02 3.33639732e+02                                                   
7.95868268e-02 3.34239277e+02                                                   
8.16572410e-02 3.32917291e+02                                                   
8.35414754e-02 3.32027796e+02                                                   
8.49793746e-02 3.31425205e+02                                                   
8.65448494e-02 3.31375653e+02                                                   
8.73573055e-02 3.30653167e+02                                                   
8.81553789e-02 3.30046159e+02                                                   
M2                                                                              
1.17693814e-01 3.41330523e+02                                                   
1.34624814e-01 3.44989625e+02                                                   
1.50489768e-01 3.47138574e+02                                                   
1.65522812e-01 3.48788134e+02                                                   
1.82971741e-01 3.50277479e+02                                                   
1.99587212e-01 3.51375719e+02                                                   
2.15909476e-01 3.52087480e+02                                                   
2.31654991e-01 3.52823251e+02                                                   
2.46295682e-01 3.53281192e+02                                                   
2.60177577e-01 3.53604744e+02                                                   
2.72587364e-01 3.53870236e+02                                                   
2.84958810e-01 3.54081098e+02                                                   
2.97631564e-01 3.54169618e+02                                                   
3.09889227e-01 3.54209865e+02                                                   
3.20584580e-01 3.54179877e+02                                                   
3.30250238e-01 3.54020218e+02                                                   
3.38664554e-01 3.53757946e+02                                                   
3.46826445e-01 3.53566205e+02                                                   
3.55334387e-01 3.53327840e+02                                                   
3.64057537e-01 3.52841523e+02                                                   
3.72041722e-01 3.52585417e+02                                                   
3.80414324e-01 3.52200089e+02                                                   
3.88044998e-01 3.51753889e+02                                                   
3.94236731e-01 3.51139971e+02                                                   
3.97904110e-01 3.50801718e+02                                                   
4.02115863e-01 3.50433646e+02                                                   
S2                                                                              
2.58055800e-02 3.52023232e+02                                                   
3.02402750e-02 3.58694499e+02                                                   
3.41059305e-02 2.94471798e+00                                                   
3.77884853e-02 6.20906912e+00                                                   
4.22427975e-02 9.20748495e+00                                                   
4.70789036e-02 1.12914985e+01                                                   
5.15812286e-02 1.31039740e+01                                                   
5.56131874e-02 1.46579748e+01                                                   
5.96789196e-02 1.56497392e+01                                                   
6.36837957e-02 1.64698746e+01                                                   
6.71768067e-02 1.71705246e+01                                                   
7.01796020e-02 1.79604160e+01                                                   
7.40243953e-02 1.83689795e+01                                                   
7.74736649e-02 1.86974340e+01                                                   
8.02674189e-02 1.90534235e+01                                                   
8.23603537e-02 1.95205545e+01                                                   
8.51689215e-02 1.93600006e+01                                                   
8.73415474e-02 1.93266866e+01                                                   
8.92939213e-02 1.93035825e+01                                                   
9.06772738e-02 1.93111928e+01                                                   
9.27870350e-02 1.89059792e+01                                                   
9.45091553e-02 1.85249375e+01                                                   
9.55869941e-02 1.81806675e+01                                                   
9.64000034e-02 1.78912482e+01                                                   
9.72539883e-02 1.75351712e+01                                                   
9.79561423e-02 1.72027216e+01                                                   
K2                                                                              
6.92639515e-03 3.42106477e+02                                                   
7.94253457e-03 3.50184073e+02                                                   
8.83509912e-03 3.55382949e+02                                                   
9.68512826e-03 3.59341701e+02                                                   
1.06524269e-02 3.14515493e+00                                                   
1.19197265e-02 6.18341157e+00                                                   
1.30116035e-02 8.64663770e+00                                                   
1.39266894e-02 1.06266896e+01                                                   
1.49939776e-02 1.21301052e+01                                                   
1.60306330e-02 1.33849428e+01                                                   
1.68922687e-02 1.44023611e+01                                                   
1.75616367e-02 1.53837211e+01                                                   
1.86314953e-02 1.62114199e+01                                                   
1.95013549e-02 1.68748008e+01                                                   
2.02168534e-02 1.74918566e+01                                                   
2.05978226e-02 1.81500434e+01                                                   
2.14755130e-02 1.82268923e+01                                                   
2.20855388e-02 1.83889744e+01                                                   
2.25979727e-02 1.85427714e+01                                                   
2.28103445e-02 1.86966472e+01                                                   
2.34959351e-02 1.85013746e+01                                                   
2.39669218e-02 1.82958522e+01                                                   
2.42000008e-02 1.80993668e+01                                                   
2.42606679e-02 1.79279392e+01                                                   
2.45290244e-02 1.76472615e+01                                                   
2.47187147e-02 1.73731564e+01                                                   
110                                                             ! ANGINN        
           0   0.0000000000000000        0.0000000000000000                0
       0                                                                ! NSTAE 
           0   0.0000000000000000        0.0000000000000000                0
       0                                                                ! NSTAV 
          -3   0.0000000000000000        15.000000000000000               20
          -3   0.0000000000000000        15.000000000000000               20
0                                                               ! NFREQ         
0 0 0 0                                                         ! THAS THAF NHAI
0 0 0 0                                                         ! NHASE NHASV NH
5 16171                                                         ! NHSTAR NHSINC 
1 0 1E-08 25                                                    ! ITITER ISLDIA 
 ! NCPROJ
 ! NCINST
 ! NCSOUR
 ! NCHIST
 ! NCREF
 ! NCCOM
 ! NCHOST
 ! NCONV
 ! NCCONT
 2016-09-13 18:00                                                ! NCDATE
 ! -- Begin Met Control Namelist --
 &metControl 
     WindDragLimit=   2.5000000000000001E-003 ,
     DragLawString='default',
     outputWindDrag= F ,
     rhoAir=   1.2929999999999999      ,
     invertedBarometerOnElevationBoundary= F ,
     nPowellSearchDomains=          -1
 /
 ! -- End Met Control Namelist --
