created on 2024-09-03 21:16                                     ! RUNDES        
eastcoast_95d_ll_select.grd                                     ! RUNID         
1                                                               ! NFOVER        
1                                                               ! NABOUT        
100                                                             ! NSCREEN       
0                                                               ! IHOT          
2                                                               ! ICS           
511113                                                          ! IM            
1                                                               ! NOLIBF        
2                                                               ! NOLIFA        
1                                                               ! NOLICA        
1                                                               ! NOLICAT       
2                                                               ! NWP           
primitive_weighting_in_continuity_equation                                      
mannings_n_at_sea_floor                                                         
1                                                               ! NCOR          
1                                                               ! NTIP          
8                                                               ! NWS           
1                                                               ! NRAMP         
9.81                                                            ! G             
-3                                                              ! TAU0          
80.142686                                                       ! DTDP          
0                                                               ! STATIM        
0                                                               ! REFTIM        
2016 09 28 18 1 0.7 1                                           ! IREFYR IREFMO 
11                                                              ! RNDAY         
15                                                              ! DRAMP         
0.5 0.5 0                                                       ! A00 B00 C00   
0.01 0 0 0.01                                                   ! H0 NODEDRYMIN 
-76.725105 26.58329                                             ! SLAM0 SFEA0   
0.0025                                                          ! FFACTOR       
-0.2                                                            ! smagorinsky co
0                                                               ! CORI          
8                                                               ! NTIF          
Q1                                                                              
0.019256 6.49585E-05 0.695 0.820194 311.931                                     
O1                                                                              
0.100514 6.75977E-05 0.695 0.820194 61.9297                                     
P1                                                                              
0.046843 7.25229E-05 0.706 1 352.055                                            
K1                                                                              
0.141565 7.29212E-05 0.736 0.890227 184.553                                     
N2                                                                              
0.046398 0.00013788 0.693 1.03569 134.612                                       
M2                                                                              
0.242334 0.000140519 0.693 1.03569 244.61                                       
S2                                                                              
0.112841 0.000145444 0.693 1 180                                                
K2                                                                              
0.030704 0.000145842 0.693 0.760365 189.728                                     
8                                                                               
Q1                                                                              
6.49585E-05 0.820194 311.931                                                    
O1                                                                              
6.75977E-05 0.820194 61.9297                                                    
P1                                                                              
7.25229E-05 1 352.055                                                           
K1                                                                              
7.29212E-05 0.890227 184.553                                                    
N2                                                                              
0.00013788 1.03569 134.612                                                      
M2                                                                              
0.000140519 1.03569 244.61                                                      
S2                                                                              
0.000145444 1 180                                                               
K2                                                                              
0.000145842 0.760365 189.728                                                    
Q1                                                                              
1.12000000e-02 1.89380020e+02                                                   
1.11000001e-02 1.87925082e+02                                                   
1.10000002e-02 1.86467798e+02                                                   
1.08905307e-02 1.85029654e+02                                                   
1.07655341e-02 1.83607847e+02                                                   
1.05999994e-02 1.82082514e+02                                                   
1.04999995e-02 1.80251787e+02                                                   
1.03732132e-02 1.78684586e+02                                                   
1.01999998e-02 1.76899875e+02                                                   
1.00366552e-02 1.74950804e+02                                                   
1.00000000e-02 1.73161333e+02                                                   
9.90000010e-03 1.71377985e+02                                                   
9.80000019e-03 1.69519207e+02                                                   
O1                                                                              
5.67791623e-02 2.15838584e+02                                                   
5.59492723e-02 2.14964686e+02                                                   
5.48397994e-02 2.13382030e+02                                                   
5.37905313e-02 2.11651145e+02                                                   
5.30986178e-02 2.10217843e+02                                                   
5.26331031e-02 2.08858795e+02                                                   
5.19544475e-02 2.07262751e+02                                                   
5.03464269e-02 2.05597896e+02                                                   
4.91429856e-02 2.03996836e+02                                                   
4.81395490e-02 2.02770226e+02                                                   
4.73361273e-02 2.00775850e+02                                                   
4.66355968e-02 1.98634918e+02                                                   
4.61200354e-02 1.96939427e+02                                                   
P1                                                                              
2.27561302e-02 2.19974704e+02                                                   
2.23492721e-02 2.18516987e+02                                                   
2.17699015e-02 2.16764297e+02                                                   
2.11905293e-02 2.14944130e+02                                                   
2.07655329e-02 2.13250618e+02                                                   
2.04331012e-02 2.11521370e+02                                                   
2.00068752e-02 2.09372472e+02                                                   
1.95732140e-02 2.07094649e+02                                                   
1.92330971e-02 2.04741679e+02                                                   
1.89697734e-02 2.02395044e+02                                                   
1.87361280e-02 2.00021512e+02                                                   
1.86024825e-02 1.97623346e+02                                                   
1.85330850e-02 1.95349302e+02                                                   
K1                                                                              
6.46482577e-02 2.21198088e+02                                                   
6.22639554e-02 2.19108115e+02                                                   
6.03097028e-02 2.16830430e+02                                                   
5.87141252e-02 2.14581048e+02                                                   
5.75641503e-02 2.12590291e+02                                                   
5.67067401e-02 2.10783999e+02                                                   
5.55944122e-02 2.08444459e+02                                                   
5.38527177e-02 2.05132811e+02                                                   
5.25876892e-02 2.02125704e+02                                                   
5.16726656e-02 1.99386683e+02                                                   
5.10023622e-02 1.97274282e+02                                                   
5.04993459e-02 1.94913447e+02                                                   
5.05992554e-02 1.90937488e+02                                                   
N2                                                                              
1.98179386e-02 3.03241751e+02                                                   
2.24855640e-02 3.11495309e+02                                                   
2.61085804e-02 3.17473470e+02                                                   
2.98638705e-02 3.21413440e+02                                                   
3.32045465e-02 3.24186192e+02                                                   
3.65141520e-02 3.26490365e+02                                                   
4.03972458e-02 3.28550731e+02                                                   
4.39985467e-02 3.29603756e+02                                                   
4.77358214e-02 3.30705745e+02                                                   
5.15463065e-02 3.31707368e+02                                                   
5.46511779e-02 3.32205232e+02                                                   
5.74887616e-02 3.32558430e+02                                                   
6.03299280e-02 3.32838227e+02                                                   
M2                                                                              
8.45076313e-02 3.28246649e+02                                                   
1.00164715e-01 3.35840770e+02                                                   
1.17693814e-01 3.41330523e+02                                                   
1.34624814e-01 3.44989625e+02                                                   
1.50489768e-01 3.47138574e+02                                                   
1.65522812e-01 3.48788134e+02                                                   
1.82971741e-01 3.50277479e+02                                                   
1.99587212e-01 3.51375719e+02                                                   
2.15909476e-01 3.52087480e+02                                                   
2.31654991e-01 3.52823251e+02                                                   
2.46295682e-01 3.53281192e+02                                                   
2.60177577e-01 3.53604744e+02                                                   
2.72587364e-01 3.53870236e+02                                                   
S2                                                                              
1.91186428e-02 3.29417602e+02                                                   
2.16861688e-02 3.41926142e+02                                                   
2.58055800e-02 3.52023232e+02                                                   
3.02402750e-02 3.58694499e+02                                                   
3.41059305e-02 2.94471798e+00                                                   
3.77884853e-02 6.20906912e+00                                                   
4.22427975e-02 9.20748495e+00                                                   
4.70789036e-02 1.12914985e+01                                                   
5.15812286e-02 1.31039740e+01                                                   
5.56131874e-02 1.46579748e+01                                                   
5.96789196e-02 1.56497392e+01                                                   
6.36837957e-02 1.64698746e+01                                                   
6.71768067e-02 1.71705246e+01                                                   
K2                                                                              
5.74386949e-03 3.19332431e+02                                                   
6.10000014e-03 3.30897374e+02                                                   
6.92639515e-03 3.42106477e+02                                                   
7.94253457e-03 3.50184073e+02                                                   
8.83509912e-03 3.55382949e+02                                                   
9.68512826e-03 3.59341701e+02                                                   
1.06524269e-02 3.14515493e+00                                                   
1.19197265e-02 6.18341157e+00                                                   
1.30116035e-02 8.64663770e+00                                                   
1.39266894e-02 1.06266896e+01                                                   
1.49939776e-02 1.21301052e+01                                                   
1.60306330e-02 1.33849428e+01                                                   
1.68922687e-02 1.44023611e+01                                                   
110                                                             ! ANGINN        
           0   0.0000000000000000        0.0000000000000000                0
       0                                                                ! NSTAM 
           0   0.0000000000000000        0.0000000000000000                0
       0                                                                ! NSTAE 
           0   0.0000000000000000        0.0000000000000000                0
       0                                                                ! NSTAV 
          -3   0.0000000000000000        15.000000000000000               20
          -3   0.0000000000000000        15.000000000000000               20
          -3   0.0000000000000000        15.000000000000000               20
0                                                               ! NFREQ         
0 0 0 0                                                         ! THAS THAF NHAI
0 0 0 0                                                         ! NHASE NHASV NH
5 16171                                                         ! NHSTAR NHSINC 
1 0 1E-08 25                                                    ! ITITER ISLDIA 
 ! NCPROJ
 ! NCINST
 ! NCSOUR
 ! NCHIST
 ! NCREF
 ! NCCOM
 ! NCHOST
 ! NCONV
 ! NCCONT
 2016-09-13 18:00                                                ! NCDATE
 ! -- Begin Met Control Namelist --
 &metControl 
     WindDragLimit=   2.5000000000000001E-003 ,
     DragLawString='default',
     outputWindDrag= F ,
     rhoAir=   1.2929999999999999      ,
     invertedBarometerOnElevationBoundary= F ,
     nPowellSearchDomains=          -1
 /
 ! -- End Met Control Namelist --
