created on 2024-09-03 21:16                                     ! RUNDES        
eastcoast_95d_ll_select.grd                                     ! RUNID         
1                                                               ! NFOVER        
1                                                               ! NABOUT        
100                                                             ! NSCREEN       
0                                                               ! IHOT          
2                                                               ! ICS           
511113                                                          ! IM            
1                                                               ! NOLIBF        
2                                                               ! NOLIFA        
1                                                               ! NOLICA        
1                                                               ! NOLICAT       
2                                                               ! NWP           
primitive_weighting_in_continuity_equation                                      
mannings_n_at_sea_floor                                                         
1                                                               ! NCOR          
1                                                               ! NTIP          
8                                                               ! NWS           
1                                                               ! NRAMP         
9.81                                                            ! G             
-3                                                              ! TAU0          
80.142686                                                       ! DTDP          
0                                                               ! STATIM        
0                                                               ! REFTIM        
2016 09 28 18 1 0.7 1                                           ! IREFYR IREFMO 
11                                                              ! RNDAY         
15                                                              ! DRAMP         
0.5 0.5 0                                                       ! A00 B00 C00   
0.01 0 0 0.01                                                   ! H0 NODEDRYMIN 
-76.725105 26.58329                                             ! SLAM0 SFEA0   
0.0025                                                          ! FFACTOR       
-0.2                                                            ! smagorinsky co
0                                                               ! CORI          
8                                                               ! NTIF          
Q1                                                                              
0.019256 6.49585E-05 0.695 0.820194 311.931                                     
O1                                                                              
0.100514 6.75977E-05 0.695 0.820194 61.9297                                     
P1                                                                              
0.046843 7.25229E-05 0.706 1 352.055                                            
K1                                                                              
0.141565 7.29212E-05 0.736 0.890227 184.553                                     
N2                                                                              
0.046398 0.00013788 0.693 1.03569 134.612                                       
M2                                                                              
0.242334 0.000140519 0.693 1.03569 244.61                                       
S2                                                                              
0.112841 0.000145444 0.693 1 180                                                
K2                                                                              
0.030704 0.000145842 0.693 0.760365 189.728                                     
8                                                                               
Q1                                                                              
6.49585E-05 0.820194 311.931                                                    
O1                                                                              
6.75977E-05 0.820194 61.9297                                                    
P1                                                                              
7.25229E-05 1 352.055                                                           
K1                                                                              
7.29212E-05 0.890227 184.553                                                    
N2                                                                              
0.00013788 1.03569 134.612                                                      
M2                                                                              
0.000140519 1.03569 244.61                                                      
S2                                                                              
0.000145444 1 180                                                               
K2                                                                              
0.000145842 0.760365 189.728                                                    
Q1                                                                              
9.83308496e-03 1.46977449e+02                                                   
9.90000010e-03 1.46976596e+02                                                   
1.00000000e-02 1.46710436e+02                                                   
1.00330656e-02 1.46335646e+02                                                   
O1                                                                              
5.19460110e-02 1.77357315e+02                                                   
5.12474417e-02 1.76852908e+02                                                   
5.12745486e-02 1.76417760e+02                                                   
5.14953882e-02 1.76031992e+02                                                   
P1                                                                              
2.19290245e-02 1.74118660e+02                                                   
2.21517931e-02 1.73753933e+02                                                   
2.23414778e-02 1.73427968e+02                                                   
2.26311615e-02 1.73138092e+02                                                   
K1                                                                              
5.98951944e-02 1.66928983e+02                                                   
6.01848730e-02 1.66830123e+02                                                   
6.02244344e-02 1.67016680e+02                                                   
6.11604204e-02 1.66581389e+02                                                   
N2                                                                              
8.73573055e-02 3.30653167e+02                                                   
8.81553789e-02 3.30046159e+02                                                   
8.89913624e-02 3.29538861e+02                                                   
8.97934866e-02 3.29049684e+02                                                   
M2                                                                              
3.97904110e-01 3.50801718e+02                                                   
4.02115863e-01 3.50433646e+02                                                   
4.08293701e-01 3.50004684e+02                                                   
4.08288063e-01 3.49586002e+02                                                   
S2                                                                              
9.72539883e-02 1.75351712e+01                                                   
9.79561423e-02 1.72027216e+01                                                   
9.85921435e-02 1.68840606e+01                                                   
9.91961927e-02 1.65587069e+01                                                   
K2                                                                              
2.45290244e-02 1.76472615e+01                                                   
2.47187147e-02 1.73731564e+01                                                   
2.49084057e-02 1.71157426e+01                                                   
2.50980959e-02 1.68550206e+01                                                   
110                                                             ! ANGINN        
           0   0.0000000000000000        0.0000000000000000                0
       0                                                                ! NSTAM 
           0   0.0000000000000000        0.0000000000000000                0
       0                                                                ! NSTAE 
           0   0.0000000000000000        0.0000000000000000                0
       0                                                                ! NSTAV 
          -3   0.0000000000000000        15.000000000000000               20
          -3   0.0000000000000000        15.000000000000000               20
          -3   0.0000000000000000        15.000000000000000               20
0                                                               ! NFREQ         
0 0 0 0                                                         ! THAS THAF NHAI
0 0 0 0                                                         ! NHASE NHASV NH
5 16171                                                         ! NHSTAR NHSINC 
1 0 1E-08 25                                                    ! ITITER ISLDIA 
 ! NCPROJ
 ! NCINST
 ! NCSOUR
 ! NCHIST
 ! NCREF
 ! NCCOM
 ! NCHOST
 ! NCONV
 ! NCCONT
 2016-09-13 18:00                                                ! NCDATE
 ! -- Begin Met Control Namelist --
 &metControl 
     WindDragLimit=   2.5000000000000001E-003 ,
     DragLawString='default',
     outputWindDrag= F ,
     rhoAir=   1.2929999999999999      ,
     invertedBarometerOnElevationBoundary= F ,
     nPowellSearchDomains=          -1
 /
 ! -- End Met Control Namelist --
