created on 2024-09-05 14:55                                     ! RUNDES        
eastcoast_95d_ll_select.grd                                     ! RUNID         
1                                                               ! NFOVER        
1                                                               ! NABOUT        
100                                                             ! NSCREEN       
0                                                               ! IHOT          
2                                                               ! ICS           
511113                                                          ! IM            
1                                                               ! NOLIBF        
2                                                               ! NOLIFA        
1                                                               ! NOLICA        
1                                                               ! NOLICAT       
2                                                               ! NWP           
primitive_weighting_in_continuity_equation                                      
mannings_n_at_sea_floor                                                         
1                                                               ! NCOR          
1                                                               ! NTIP          
0                                                               ! NWS           
1                                                               ! NRAMP         
9.81                                                            ! G             
-3                                                              ! TAU0          
80.142686                                                       ! DTDP          
0                                                               ! STATIM        
0                                                               ! REFTIM        
8                                                              ! RNDAY          
15                                                              ! DRAMP         
0.5 0.5 0                                                       ! A00 B00 C00   
0.01 0 0 0.01                                                   ! H0 NODEDRYMIN 
-76.725105 26.58329                                             ! SLAM0 SFEA0   
0.0025                                                          ! FFACTOR       
-0.2                                                            ! smagorinsky co
0                                                               ! CORI          
8                                                               ! NTIF          
Q1                                                                              
0.019256 6.49585E-05 0.695 1.03332 190.975                                      
O1                                                                              
0.100514 6.75977E-05 0.695 1.03332 219.176                                      
P1                                                                              
0.046843 7.25229E-05 0.706 1 53.1342                                            
K1                                                                              
0.141565 7.29212E-05 0.736 1.02074 118.15                                       
N2                                                                              
0.046398 0.00013788 0.693 0.998141 305.241                                      
M2                                                                              
0.242334 0.000140519 0.693 0.998141 333.443                                     
S2                                                                              
0.112841 0.000145444 0.693 1 180                                                
K2                                                                              
0.030704 0.000145842 0.693 1.03171 56.0484                                      
8                                                                               
Q1                                                                              
6.49585E-05 1.03332 190.975                                                     
O1                                                                              
6.75977E-05 1.03332 219.176                                                     
P1                                                                              
7.25229E-05 1 53.1342                                                           
K1                                                                              
7.29212E-05 1.02074 118.15                                                      
N2                                                                              
0.00013788 0.998141 305.241                                                     
M2                                                                              
0.000140519 0.998141 333.443                                                    
S2                                                                              
0.000145444 1 180                                                               
K2                                                                              
0.000145842 1.03171 56.0484                                                     
Q1                                                                              
1.27413390e-02 2.04453789e+02                                                   
1.26999998e-02 2.03560761e+02                                                   
1.26999998e-02 2.02098554e+02                                                   
1.25131760e-02 2.01684051e+02                                                   
1.24000001e-02 2.01231819e+02                                                   
1.23000002e-02 2.00617331e+02                                                   
1.22710938e-02 1.99856043e+02                                                   
1.22669066e-02 1.98839056e+02                                                   
1.20972804e-02 1.98602611e+02                                                   
1.19668717e-02 1.98215651e+02                                                   
1.18903565e-02 1.97733185e+02                                                   
1.17999995e-02 1.97197878e+02                                                   
1.16999996e-02 1.96610214e+02                                                   
1.16999996e-02 1.95977847e+02                                                   
1.15999997e-02 1.95294213e+02                                                   
1.15999997e-02 1.94566909e+02                                                   
1.15999997e-02 1.93747039e+02                                                   
1.15940997e-02 1.92823354e+02                                                   
1.13999999e-02 1.91961481e+02                                                   
1.13000000e-02 1.90664974e+02                                                   
1.12000000e-02 1.89380020e+02                                                   
1.11000001e-02 1.87925082e+02                                                   
1.10000002e-02 1.86467798e+02                                                   
1.08905307e-02 1.85029654e+02                                                   
O1                                                                              
6.89475811e-02 2.26652108e+02                                                   
6.86336398e-02 2.26179689e+02                                                   
6.84797367e-02 2.25669486e+02                                                   
6.76658819e-02 2.25446034e+02                                                   
6.69707885e-02 2.25217290e+02                                                   
6.64152298e-02 2.24948206e+02                                                   
6.59083407e-02 2.24628726e+02                                                   
6.55507254e-02 2.24342346e+02                                                   
6.47945602e-02 2.23888141e+02                                                   
6.41646334e-02 2.23409979e+02                                                   
6.36138421e-02 2.22907394e+02                                                   
6.31068834e-02 2.22397125e+02                                                   
6.25999239e-02 2.21876852e+02                                                   
6.21630476e-02 2.21373268e+02                                                   
6.17096029e-02 2.20888757e+02                                                   
6.13561569e-02 2.20439319e+02                                                   
6.11027109e-02 2.20054024e+02                                                   
6.02764018e-02 2.19257609e+02                                                   
5.89853083e-02 2.18201559e+02                                                   
5.77259830e-02 2.16942372e+02                                                   
5.67791623e-02 2.15838584e+02                                                   
5.59492723e-02 2.14964686e+02                                                   
5.48397994e-02 2.13382030e+02                                                   
5.37905313e-02 2.11651145e+02                                                   
P1                                                                              
3.00764359e-02 2.32289035e+02                                                   
2.96725723e-02 2.32087828e+02                                                   
2.93165015e-02 2.31859409e+02                                                   
2.89472546e-02 2.31536133e+02                                                   
2.85189622e-02 2.31151744e+02                                                   
2.81906721e-02 2.30761420e+02                                                   
2.78372453e-02 2.30330546e+02                                                   
2.74838184e-02 2.29898073e+02                                                   
2.71972803e-02 2.29441319e+02                                                   
2.68769646e-02 2.28932181e+02                                                   
2.65234865e-02 2.28368910e+02                                                   
2.62700061e-02 2.27804623e+02                                                   
2.59165263e-02 2.27246963e+02                                                   
2.56630482e-02 2.26679311e+02                                                   
2.53764828e-02 2.26089415e+02                                                   
2.50561559e-02 2.25488838e+02                                                   
2.48027098e-02 2.24877289e+02                                                   
2.43882006e-02 2.23935476e+02                                                   
2.39061282e-02 2.22850173e+02                                                   
2.32629897e-02 2.21391037e+02                                                   
2.27561302e-02 2.19974704e+02                                                   
2.23492721e-02 2.18516987e+02                                                   
2.17699015e-02 2.16764297e+02                                                   
2.11905293e-02 2.14944130e+02                                                   
K1                                                                              
8.47644050e-02 2.36384273e+02                                                   
8.37802411e-02 2.35994020e+02                                                   
8.28920466e-02 2.35563094e+02                                                   
8.18681129e-02 2.35273400e+02                                                   
8.08422832e-02 2.34935239e+02                                                   
7.98203044e-02 2.34536080e+02                                                   
7.87159068e-02 2.34042061e+02                                                   
7.76021807e-02 2.33493283e+02                                                   
7.65884537e-02 2.32859280e+02                                                   
7.55416003e-02 2.32098979e+02                                                   
7.44608125e-02 2.31023631e+02                                                   
7.36100204e-02 2.30498196e+02                                                   
7.26495827e-02 2.30060161e+02                                                   
7.17891462e-02 2.29447848e+02                                                   
7.09052911e-02 2.28758550e+02                                                   
7.00684669e-02 2.28036983e+02                                                   
6.92081295e-02 2.27275954e+02                                                   
6.79815381e-02 2.26114659e+02                                                   
6.67183822e-02 2.24741312e+02                                                   
6.53921116e-02 2.22908363e+02                                                   
6.46482577e-02 2.21198088e+02                                                   
6.22639554e-02 2.19108115e+02                                                   
6.03097028e-02 2.16830430e+02                                                   
5.87141252e-02 2.14581048e+02                                                   
N2                                                                              
4.93854881e-02 2.02296650e+02                                                   
4.65133488e-02 2.02893484e+02                                                   
4.45058060e-02 2.03476188e+02                                                   
4.20427024e-02 2.04296377e+02                                                   
3.96342848e-02 2.05277139e+02                                                   
3.77286814e-02 2.06469706e+02                                                   
3.57010521e-02 2.07899897e+02                                                   
3.36065178e-02 2.09562190e+02                                                   
3.14789073e-02 2.11355733e+02                                                   
2.93951310e-02 2.13501878e+02                                                   
2.71710419e-02 2.16221101e+02                                                   
2.48624865e-02 2.19600033e+02                                                   
2.27015118e-02 2.23643900e+02                                                   
2.07437576e-02 2.28581063e+02                                                   
1.89697859e-02 2.34604618e+02                                                   
1.75396592e-02 2.41727137e+02                                                   
1.64433798e-02 2.50231563e+02                                                   
1.56676834e-02 2.62688629e+02                                                   
1.59546723e-02 2.75719251e+02                                                   
1.74472353e-02 2.91124692e+02                                                   
1.98179386e-02 3.03241751e+02                                                   
2.24855640e-02 3.11495309e+02                                                   
2.61085804e-02 3.17473470e+02                                                   
2.98638705e-02 3.21413440e+02                                                   
M2                                                                              
2.18134688e-01 2.19052661e+02                                                   
2.02592574e-01 2.19323469e+02                                                   
1.90669262e-01 2.19470668e+02                                                   
1.79865101e-01 2.19856590e+02                                                   
1.69924074e-01 2.20341132e+02                                                   
1.61245878e-01 2.21243750e+02                                                   
1.51298466e-01 2.22329275e+02                                                   
1.41268558e-01 2.23666656e+02                                                   
1.31301972e-01 2.25372761e+02                                                   
1.21613869e-01 2.27582341e+02                                                   
1.11795031e-01 2.30476186e+02                                                   
1.01646174e-01 2.33609965e+02                                                   
9.15739017e-02 2.37492732e+02                                                   
8.21487040e-02 2.42584565e+02                                                   
7.38333968e-02 2.49016077e+02                                                   
6.69924240e-02 2.56877322e+02                                                   
6.20803766e-02 2.66237201e+02                                                   
5.88714947e-02 2.81961904e+02                                                   
6.14134394e-02 2.99343650e+02                                                   
7.13487395e-02 3.16995390e+02                                                   
8.45076313e-02 3.28246649e+02                                                   
1.00164715e-01 3.35840770e+02                                                   
1.17693814e-01 3.41330523e+02                                                   
1.34624814e-01 3.44989625e+02                                                   
S2                                                                              
7.05219929e-02 2.37881982e+02                                                   
6.63532019e-02 2.38347508e+02                                                   
6.34595033e-02 2.38580814e+02                                                   
5.99404271e-02 2.38873599e+02                                                   
5.66897664e-02 2.39176969e+02                                                   
5.40354075e-02 2.39682208e+02                                                   
5.12763156e-02 2.40422864e+02                                                   
4.85910546e-02 2.41344864e+02                                                   
4.56349146e-02 2.42468116e+02                                                   
4.28496727e-02 2.43808997e+02                                                   
3.98421111e-02 2.45363009e+02                                                   
3.65768609e-02 2.47295147e+02                                                   
3.35185690e-02 2.49667215e+02                                                   
3.05971609e-02 2.52593490e+02                                                   
2.77425998e-02 2.56176401e+02                                                   
2.51987510e-02 2.60492152e+02                                                   
2.29252724e-02 2.65588616e+02                                                   
2.01330455e-02 2.75727181e+02                                                   
1.82145921e-02 2.90404066e+02                                                   
1.77047470e-02 3.10952593e+02                                                   
1.91186428e-02 3.29417602e+02                                                   
2.16861688e-02 3.41926142e+02                                                   
2.58055800e-02 3.52023232e+02                                                   
3.02402750e-02 3.58694499e+02                                                   
K2                                                                              
1.90365022e-02 2.40151361e+02                                                   
1.79711156e-02 2.40762669e+02                                                   
1.72292403e-02 2.41203312e+02                                                   
1.63186263e-02 2.41683286e+02                                                   
1.55744450e-02 2.42176470e+02                                                   
1.48397850e-02 2.42676359e+02                                                   
1.41463564e-02 2.43471127e+02                                                   
1.35176314e-02 2.44484507e+02                                                   
1.27283374e-02 2.45705279e+02                                                   
1.19983769e-02 2.47138090e+02                                                   
1.12379384e-02 2.48775841e+02                                                   
1.04443668e-02 2.50790712e+02                                                   
9.68392560e-03 2.53220408e+02                                                   
8.99356955e-03 2.56078647e+02                                                   
8.29633024e-03 2.59415272e+02                                                   
7.70293581e-03 2.63229643e+02                                                   
7.17304491e-03 2.67415730e+02                                                   
6.42794143e-03 2.75711134e+02                                                   
5.90690653e-03 2.87504124e+02                                                   
5.63386879e-03 3.03761718e+02                                                   
5.74386949e-03 3.19332431e+02                                                   
6.10000014e-03 3.30897374e+02                                                   
6.92639515e-03 3.42106477e+02                                                   
7.94253457e-03 3.50184073e+02                                                   
110                                                             ! ANGINN        
           0   0.0000000000000000        0.0000000000000000                0
       0                                                                ! NSTAE 
           0   0.0000000000000000        0.0000000000000000                0
       0                                                                ! NSTAV 
          -3   0.0000000000000000        15.000000000000000               20
          -3   0.0000000000000000        15.000000000000000               20
0                                                               ! NFREQ         
0 0 0 0                                                         ! THAS THAF NHAI
0 0 0 0                                                         ! NHASE NHASV NH
5 16171                                                         ! NHSTAR NHSINC 
1 0 1E-08 25                                                    ! ITITER ISLDIA 
 ! NCPROJ
 ! NCINST
 ! NCSOUR
 ! NCHIST
 ! NCREF
 ! NCCOM
 ! NCHOST
 ! NCONV
 ! NCCONT
 2020-07-13 18:00                                                ! NCDATE
 ! -- Begin Met Control Namelist --
 &metControl 
     WindDragLimit=   2.5000000000000001E-003 ,
     DragLawString='default',
     outputWindDrag= F ,
     rhoAir=   1.2929999999999999      ,
     invertedBarometerOnElevationBoundary= F ,
     nPowellSearchDomains=          -1
 /
 ! -- End Met Control Namelist --
