Windward Passage and Gonave Gulf - No Mangroves ! 32 CHARACTER ALPHANUMERIC RUN DESCRIPTION
0                                        ! 24 CHARACTER ALPHANUMERIC RUN IDENTIFICATION
1                                        ! NFOVER - NONFATAL ERROR OVERRIDE OPTION
0                                        ! NABOUT - ABREVIATED OUTPUT OPTION PARAMETER
1000                                     ! NSCREEN - OUTPUT TO UNIT 6 PARAMETER
0                                        ! IHOT - HOT START OPTION PARAMETER
2                                        ! ICS - COORDINATE SYSTEM OPTION PARAMETER
0                                        ! IM - MODEL RUN TYPE: 0,10,20,30 = 2DDI, 1,11,21,31 = 3D(VS), 2 = 3D(DSS)
1                                        ! NOLIBF - NONLINEAR BOTTOM FRICTION OPTION
0                                        ! NOLIFA - OPTION TO INCLUDE FINITE AMPLITUDE TERMS
0                                        ! NOLICA - OPTION TO INCLUDE CONVECTIVE ACCELERATION TERMS
0                                        ! NOLICAT - OPTION TO CONSIDER TIME DERIVATIVE OF CONV ACC TERMS
1                                        ! NWP - Number of nodal attributes.
primitive_weighting_in_continuity_equation
0                                        ! NCOR - VARIABLE CORIOLIS IN SPACE OPTION PARAMETER
1                                        ! NTIP - TIDAL POTENTIAL OPTION PARAMETER
320                                      ! NWS - WIND STRESS AND BAROMETRIC PRESSURE OPTION PARAMETER
1                                        ! NRAMP - RAMP FUNCTION OPTION
9.80665                                  ! G - ACCELERATION DUE TO GRAVITY - DETERMINES UNITS
-3                                       ! TAU0 - WEIGHTING FACTOR IN GWCE
10.0                                     ! DTDP - TIME STEP (IN SECONDS)
0.0                                      ! STATIM - STARTING SIMULATION TIME IN DAYS
0.0                                      ! REFTIME - REFERENCE TIME (IN DAYS) FOR NODAL FACTORS AND EQUILIBRIUM ARGS
2016 10 03 00 1 0.9 1 1800.0             ! YYYY MM DD HH24 StormNumber BLAdj geofactor
2.0                                      ! RNDAY - TOTAL LENGTH OF SIMULATION (IN DAYS)
0.50000                                  ! DRAMP - DURATION OF RAMP FUNCTION (IN DAYS)
0.350000 0.300000 0.350000               ! TIME WEIGHTING FACTORS FOR THE GWCE EQUATION
0.05                                     ! H0 - MINIMUM WATER DEPTH AND DRYING/WETTING OPTIONS
-74.439732 18.664112                     ! SLAM0, SFEA0 - LONGITUDE AND LATITUDE ON WHICH THE CPP COORDINATE PROJECTION IS CENTERED
0.0025                                   ! CF
3.0                                      ! ESLM - SPATIALLY CONSTANT HORIZONTAL EDDY VISCOSITY FOR THE MOMENTUM EQUATIONS
0.0                                      ! CORI - CONSTANT CORIOLIS COEFFICIENT
9                                        ! NTIF - NUMBER OF TIDAL POTENTIAL CONSTITUENTS
K1                                       ! TIPOTAG - NAME OF TIDAL POTENTIAL CONSTITUENT
0.141565 7.2921158358e-05 0.736 0.4857511661286428 278.75875030616385  ! TPK, AMIGT, ETRF, FFT, FACET - CONSTITUENT PROPERTIES
K2                                       ! TIPOTAG - NAME OF TIDAL POTENTIAL CONSTITUENT
0.030704 0.000145842317201 0.693 0.34919164866278585 18.142984100833246  ! TPK, AMIGT, ETRF, FFT, FACET - CONSTITUENT PROPERTIES
M2                                       ! TIPOTAG - NAME OF TIDAL POTENTIAL CONSTITUENT
0.242334 0.000140518902509 0.693 1.0879740880078232 321.0321234505222  ! TPK, AMIGT, ETRF, FFT, FACET - CONSTITUENT PROPERTIES
M4                                       ! TIPOTAG - NAME OF TIDAL POTENTIAL CONSTITUENT
0.0 0.000281037805017 0.069 1.1836876161764547 282.0642469010444  ! TPK, AMIGT, ETRF, FFT, FACET - CONSTITUENT PROPERTIES
M6                                       ! TIPOTAG - NAME OF TIDAL POTENTIAL CONSTITUENT
0.0 0.000421556708011 0.069 1.2878214546957327 243.09637035156652  ! TPK, AMIGT, ETRF, FFT, FACET - CONSTITUENT PROPERTIES
N2                                       ! TIPOTAG - NAME OF TIDAL POTENTIAL CONSTITUENT
0.046398 0.000137879699487 0.693 1.0879740880078232 154.84427500603687  ! TPK, AMIGT, ETRF, FFT, FACET - CONSTITUENT PROPERTIES
O1                                       ! TIPOTAG - NAME OF TIDAL POTENTIAL CONSTITUENT
0.100514 6.7597744151e-05 0.695 0.23558992869104997 44.1381891482879  ! TPK, AMIGT, ETRF, FFT, FACET - CONSTITUENT PROPERTIES
Q1                                       ! TIPOTAG - NAME OF TIDAL POTENTIAL CONSTITUENT
0.019256 6.4958541129e-05 0.695 0.23558992869104997 237.95034070380257  ! TPK, AMIGT, ETRF, FFT, FACET - CONSTITUENT PROPERTIES
S2                                       ! TIPOTAG - NAME OF TIDAL POTENTIAL CONSTITUENT
0.112841 0.000145444104333 0.693 1.0 360.0  ! TPK, AMIGT, ETRF, FFT, FACET - CONSTITUENT PROPERTIES
9                                        ! NBFR - NUMBER OF PERIODIC FORCING FREQUENCIES ON ELEVATION SPECIFIED BOUNDARIES
K1                                       ! BOUNTAG - NAME OF TIDAL FORCING CONSTITUENT
7.2921158358e-05 0.4857511661286428 278.75875030616385   ! AMIG, FF, FACE - CONSTITUENT PROPERTIES
K2                                       ! BOUNTAG - NAME OF TIDAL FORCING CONSTITUENT
0.000145842317201 0.34919164866278585 18.142984100833246   ! AMIG, FF, FACE - CONSTITUENT PROPERTIES
M2                                       ! BOUNTAG - NAME OF TIDAL FORCING CONSTITUENT
0.000140518902509 1.0879740880078232 321.0321234505222   ! AMIG, FF, FACE - CONSTITUENT PROPERTIES
M4                                       ! BOUNTAG - NAME OF TIDAL FORCING CONSTITUENT
0.000281037805017 1.1836876161764547 282.0642469010444   ! AMIG, FF, FACE - CONSTITUENT PROPERTIES
M6                                       ! BOUNTAG - NAME OF TIDAL FORCING CONSTITUENT
0.000421556708011 1.2878214546957327 243.09637035156652   ! AMIG, FF, FACE - CONSTITUENT PROPERTIES
N2                                       ! BOUNTAG - NAME OF TIDAL FORCING CONSTITUENT
0.000137879699487 1.0879740880078232 154.84427500603687   ! AMIG, FF, FACE - CONSTITUENT PROPERTIES
O1                                       ! BOUNTAG - NAME OF TIDAL FORCING CONSTITUENT
6.7597744151e-05 0.23558992869104997 44.1381891482879   ! AMIG, FF, FACE - CONSTITUENT PROPERTIES
Q1                                       ! BOUNTAG - NAME OF TIDAL FORCING CONSTITUENT
6.4958541129e-05 0.23558992869104997 237.95034070380257   ! AMIG, FF, FACE - CONSTITUENT PROPERTIES
S2                                       ! BOUNTAG - NAME OF TIDAL FORCING CONSTITUENT
0.000145444104333 1.0 360.0   ! AMIG, FF, FACE - CONSTITUENT PROPERTIES
K1                                       ! ALPHA - NAME OF TIDAL FORCING CONSTITUENT
0.056121 232.188   ! EMO, EFA - NODE CONSTITUENT PROPERTIES
0.055956 232.220   ! EMO, EFA - NODE CONSTITUENT PROPERTIES
0.055741 232.142   ! EMO, EFA - NODE CONSTITUENT PROPERTIES
0.055399 231.904   ! EMO, EFA - NODE CONSTITUENT PROPERTIES
0.055174 231.716   ! EMO, EFA - NODE CONSTITUENT PROPERTIES
0.054934 231.474   ! EMO, EFA - NODE CONSTITUENT PROPERTIES
0.054601 231.133   ! EMO, EFA - NODE CONSTITUENT PROPERTIES
0.054397 230.890   ! EMO, EFA - NODE CONSTITUENT PROPERTIES
0.054245 230.550   ! EMO, EFA - NODE CONSTITUENT PROPERTIES
0.054093 230.020   ! EMO, EFA - NODE CONSTITUENT PROPERTIES
0.053949 229.638   ! EMO, EFA - NODE CONSTITUENT PROPERTIES
0.053898 229.184   ! EMO, EFA - NODE CONSTITUENT PROPERTIES
0.053916 228.694   ! EMO, EFA - NODE CONSTITUENT PROPERTIES
0.053919 228.193   ! EMO, EFA - NODE CONSTITUENT PROPERTIES
0.054046 227.849   ! EMO, EFA - NODE CONSTITUENT PROPERTIES
0.054202 227.316   ! EMO, EFA - NODE CONSTITUENT PROPERTIES
0.054444 226.590   ! EMO, EFA - NODE CONSTITUENT PROPERTIES
0.054688 226.302   ! EMO, EFA - NODE CONSTITUENT PROPERTIES
0.000000 0.000   ! EMO, EFA - NODE CONSTITUENT PROPERTIES
0.083721 211.686   ! EMO, EFA - NODE CONSTITUENT PROPERTIES
0.082673 211.916   ! EMO, EFA - NODE CONSTITUENT PROPERTIES
0.081248 211.907   ! EMO, EFA - NODE CONSTITUENT PROPERTIES
0.080096 211.657   ! EMO, EFA - NODE CONSTITUENT PROPERTIES
0.079119 211.250   ! EMO, EFA - NODE CONSTITUENT PROPERTIES
0.078220 210.598   ! EMO, EFA - NODE CONSTITUENT PROPERTIES
0.077726 209.960   ! EMO, EFA - NODE CONSTITUENT PROPERTIES
0.077583 209.485   ! EMO, EFA - NODE CONSTITUENT PROPERTIES
0.077542 209.029   ! EMO, EFA - NODE CONSTITUENT PROPERTIES
0.077717 208.446   ! EMO, EFA - NODE CONSTITUENT PROPERTIES
0.077875 207.862   ! EMO, EFA - NODE CONSTITUENT PROPERTIES
0.078096 207.421   ! EMO, EFA - NODE CONSTITUENT PROPERTIES
0.078632 206.589   ! EMO, EFA - NODE CONSTITUENT PROPERTIES
0.079153 206.226   ! EMO, EFA - NODE CONSTITUENT PROPERTIES
0.079491 205.944   ! EMO, EFA - NODE CONSTITUENT PROPERTIES
0.080155 205.731   ! EMO, EFA - NODE CONSTITUENT PROPERTIES
0.080815 205.583   ! EMO, EFA - NODE CONSTITUENT PROPERTIES
0.081151 205.555   ! EMO, EFA - NODE CONSTITUENT PROPERTIES
0.081379 205.583   ! EMO, EFA - NODE CONSTITUENT PROPERTIES
0.081747 205.568   ! EMO, EFA - NODE CONSTITUENT PROPERTIES
0.081917 205.568   ! EMO, EFA - NODE CONSTITUENT PROPERTIES
0.082150 205.582   ! EMO, EFA - NODE CONSTITUENT PROPERTIES
0.082304 205.605   ! EMO, EFA - NODE CONSTITUENT PROPERTIES
0.000000 0.000   ! EMO, EFA - NODE CONSTITUENT PROPERTIES
0.000000 0.000   ! EMO, EFA - NODE CONSTITUENT PROPERTIES
0.073303 223.435   ! EMO, EFA - NODE CONSTITUENT PROPERTIES
0.073189 223.502   ! EMO, EFA - NODE CONSTITUENT PROPERTIES
0.073117 223.637   ! EMO, EFA - NODE CONSTITUENT PROPERTIES
0.073067 223.802   ! EMO, EFA - NODE CONSTITUENT PROPERTIES
0.073027 223.896   ! EMO, EFA - NODE CONSTITUENT PROPERTIES
0.073227 224.148   ! EMO, EFA - NODE CONSTITUENT PROPERTIES
0.073065 224.291   ! EMO, EFA - NODE CONSTITUENT PROPERTIES
0.073241 224.570   ! EMO, EFA - NODE CONSTITUENT PROPERTIES
0.074424 224.348   ! EMO, EFA - NODE CONSTITUENT PROPERTIES
0.074764 224.366   ! EMO, EFA - NODE CONSTITUENT PROPERTIES
0.074770 224.518   ! EMO, EFA - NODE CONSTITUENT PROPERTIES
0.075325 224.631   ! EMO, EFA - NODE CONSTITUENT PROPERTIES
0.075329 224.727   ! EMO, EFA - NODE CONSTITUENT PROPERTIES
0.075844 224.840   ! EMO, EFA - NODE CONSTITUENT PROPERTIES
0.076204 225.031   ! EMO, EFA - NODE CONSTITUENT PROPERTIES
0.076554 224.970   ! EMO, EFA - NODE CONSTITUENT PROPERTIES
0.076866 224.911   ! EMO, EFA - NODE CONSTITUENT PROPERTIES
0.076971 224.997   ! EMO, EFA - NODE CONSTITUENT PROPERTIES
0.077141 225.094   ! EMO, EFA - NODE CONSTITUENT PROPERTIES
0.077422 225.095   ! EMO, EFA - NODE CONSTITUENT PROPERTIES
0.077824 225.117   ! EMO, EFA - NODE CONSTITUENT PROPERTIES
0.077904 225.182   ! EMO, EFA - NODE CONSTITUENT PROPERTIES
0.078158 225.232   ! EMO, EFA - NODE CONSTITUENT PROPERTIES
0.078580 225.349   ! EMO, EFA - NODE CONSTITUENT PROPERTIES
0.078797 225.434   ! EMO, EFA - NODE CONSTITUENT PROPERTIES
0.079047 225.504   ! EMO, EFA - NODE CONSTITUENT PROPERTIES
0.079224 225.561   ! EMO, EFA - NODE CONSTITUENT PROPERTIES
0.079343 225.598   ! EMO, EFA - NODE CONSTITUENT PROPERTIES
0.079463 225.630   ! EMO, EFA - NODE CONSTITUENT PROPERTIES
0.079567 225.655   ! EMO, EFA - NODE CONSTITUENT PROPERTIES
0.079683 225.686   ! EMO, EFA - NODE CONSTITUENT PROPERTIES
0.079803 225.728   ! EMO, EFA - NODE CONSTITUENT PROPERTIES
0.079887 225.768   ! EMO, EFA - NODE CONSTITUENT PROPERTIES
0.080006 225.797   ! EMO, EFA - NODE CONSTITUENT PROPERTIES
0.080084 225.825   ! EMO, EFA - NODE CONSTITUENT PROPERTIES
0.080144 225.868   ! EMO, EFA - NODE CONSTITUENT PROPERTIES
0.080209 225.887   ! EMO, EFA - NODE CONSTITUENT PROPERTIES
0.080258 225.906   ! EMO, EFA - NODE CONSTITUENT PROPERTIES
0.080247 225.927   ! EMO, EFA - NODE CONSTITUENT PROPERTIES
0.080270 225.934   ! EMO, EFA - NODE CONSTITUENT PROPERTIES
0.080292 225.940   ! EMO, EFA - NODE CONSTITUENT PROPERTIES
0.080242 225.950   ! EMO, EFA - NODE CONSTITUENT PROPERTIES
0.080199 225.962   ! EMO, EFA - NODE CONSTITUENT PROPERTIES
0.080192 225.952   ! EMO, EFA - NODE CONSTITUENT PROPERTIES
0.080161 225.943   ! EMO, EFA - NODE CONSTITUENT PROPERTIES
0.080116 225.931   ! EMO, EFA - NODE CONSTITUENT PROPERTIES
0.080038 225.926   ! EMO, EFA - NODE CONSTITUENT PROPERTIES
0.079988 225.905   ! EMO, EFA - NODE CONSTITUENT PROPERTIES
0.079874 225.883   ! EMO, EFA - NODE CONSTITUENT PROPERTIES
0.079782 225.854   ! EMO, EFA - NODE CONSTITUENT PROPERTIES
0.079625 225.816   ! EMO, EFA - NODE CONSTITUENT PROPERTIES
0.079436 225.774   ! EMO, EFA - NODE CONSTITUENT PROPERTIES
0.000000 0.000   ! EMO, EFA - NODE CONSTITUENT PROPERTIES
K2                                       ! ALPHA - NAME OF TIDAL FORCING CONSTITUENT
0.009900 36.096   ! EMO, EFA - NODE CONSTITUENT PROPERTIES
0.009890 36.229   ! EMO, EFA - NODE CONSTITUENT PROPERTIES
0.009872 36.437   ! EMO, EFA - NODE CONSTITUENT PROPERTIES
0.009834 36.772   ! EMO, EFA - NODE CONSTITUENT PROPERTIES
0.009805 37.008   ! EMO, EFA - NODE CONSTITUENT PROPERTIES
0.009771 37.277   ! EMO, EFA - NODE CONSTITUENT PROPERTIES
0.009723 37.673   ! EMO, EFA - NODE CONSTITUENT PROPERTIES
0.009690 37.939   ! EMO, EFA - NODE CONSTITUENT PROPERTIES
0.009643 38.207   ! EMO, EFA - NODE CONSTITUENT PROPERTIES
0.009568 38.562   ! EMO, EFA - NODE CONSTITUENT PROPERTIES
0.009519 38.891   ! EMO, EFA - NODE CONSTITUENT PROPERTIES
0.009465 39.172   ! EMO, EFA - NODE CONSTITUENT PROPERTIES
0.009402 39.429   ! EMO, EFA - NODE CONSTITUENT PROPERTIES
0.009341 39.660   ! EMO, EFA - NODE CONSTITUENT PROPERTIES
0.009297 39.831   ! EMO, EFA - NODE CONSTITUENT PROPERTIES
0.009229 40.046   ! EMO, EFA - NODE CONSTITUENT PROPERTIES
0.009142 40.357   ! EMO, EFA - NODE CONSTITUENT PROPERTIES
0.009102 40.456   ! EMO, EFA - NODE CONSTITUENT PROPERTIES
0.000000 0.000   ! EMO, EFA - NODE CONSTITUENT PROPERTIES
0.011103 31.610   ! EMO, EFA - NODE CONSTITUENT PROPERTIES
0.011092 31.596   ! EMO, EFA - NODE CONSTITUENT PROPERTIES
0.011094 31.702   ! EMO, EFA - NODE CONSTITUENT PROPERTIES
0.011062 31.769   ! EMO, EFA - NODE CONSTITUENT PROPERTIES
0.011043 31.693   ! EMO, EFA - NODE CONSTITUENT PROPERTIES
0.011038 31.674   ! EMO, EFA - NODE CONSTITUENT PROPERTIES
0.011029 31.733   ! EMO, EFA - NODE CONSTITUENT PROPERTIES
0.011009 31.775   ! EMO, EFA - NODE CONSTITUENT PROPERTIES
0.010992 31.822   ! EMO, EFA - NODE CONSTITUENT PROPERTIES
0.010973 31.865   ! EMO, EFA - NODE CONSTITUENT PROPERTIES
0.010955 31.936   ! EMO, EFA - NODE CONSTITUENT PROPERTIES
0.010947 32.018   ! EMO, EFA - NODE CONSTITUENT PROPERTIES
0.010914 32.185   ! EMO, EFA - NODE CONSTITUENT PROPERTIES
0.010891 32.223   ! EMO, EFA - NODE CONSTITUENT PROPERTIES
0.010867 32.299   ! EMO, EFA - NODE CONSTITUENT PROPERTIES
0.010832 32.296   ! EMO, EFA - NODE CONSTITUENT PROPERTIES
0.010792 32.342   ! EMO, EFA - NODE CONSTITUENT PROPERTIES
0.010773 32.384   ! EMO, EFA - NODE CONSTITUENT PROPERTIES
0.010767 32.422   ! EMO, EFA - NODE CONSTITUENT PROPERTIES
0.010754 32.511   ! EMO, EFA - NODE CONSTITUENT PROPERTIES
0.010750 32.649   ! EMO, EFA - NODE CONSTITUENT PROPERTIES
0.010746 32.796   ! EMO, EFA - NODE CONSTITUENT PROPERTIES
0.010749 32.946   ! EMO, EFA - NODE CONSTITUENT PROPERTIES
0.000000 0.000   ! EMO, EFA - NODE CONSTITUENT PROPERTIES
0.000000 0.000   ! EMO, EFA - NODE CONSTITUENT PROPERTIES
0.006266 33.047   ! EMO, EFA - NODE CONSTITUENT PROPERTIES
0.006301 33.387   ! EMO, EFA - NODE CONSTITUENT PROPERTIES
0.006336 33.662   ! EMO, EFA - NODE CONSTITUENT PROPERTIES
0.006364 33.825   ! EMO, EFA - NODE CONSTITUENT PROPERTIES
0.006391 34.072   ! EMO, EFA - NODE CONSTITUENT PROPERTIES
0.006398 33.865   ! EMO, EFA - NODE CONSTITUENT PROPERTIES
0.006444 34.218   ! EMO, EFA - NODE CONSTITUENT PROPERTIES
0.006434 34.044   ! EMO, EFA - NODE CONSTITUENT PROPERTIES
0.006211 33.103   ! EMO, EFA - NODE CONSTITUENT PROPERTIES
0.006144 33.115   ! EMO, EFA - NODE CONSTITUENT PROPERTIES
0.006164 33.342   ! EMO, EFA - NODE CONSTITUENT PROPERTIES
0.006108 32.806   ! EMO, EFA - NODE CONSTITUENT PROPERTIES
0.006076 33.283   ! EMO, EFA - NODE CONSTITUENT PROPERTIES
0.006023 32.910   ! EMO, EFA - NODE CONSTITUENT PROPERTIES
0.005971 32.689   ! EMO, EFA - NODE CONSTITUENT PROPERTIES
0.005898 32.564   ! EMO, EFA - NODE CONSTITUENT PROPERTIES
0.005825 32.464   ! EMO, EFA - NODE CONSTITUENT PROPERTIES
0.005820 32.448   ! EMO, EFA - NODE CONSTITUENT PROPERTIES
0.005801 32.369   ! EMO, EFA - NODE CONSTITUENT PROPERTIES
0.005748 32.126   ! EMO, EFA - NODE CONSTITUENT PROPERTIES
0.005671 31.718   ! EMO, EFA - NODE CONSTITUENT PROPERTIES
0.005639 32.015   ! EMO, EFA - NODE CONSTITUENT PROPERTIES
0.005596 31.867   ! EMO, EFA - NODE CONSTITUENT PROPERTIES
0.005548 31.327   ! EMO, EFA - NODE CONSTITUENT PROPERTIES
0.005506 31.234   ! EMO, EFA - NODE CONSTITUENT PROPERTIES
0.005481 31.017   ! EMO, EFA - NODE CONSTITUENT PROPERTIES
0.005459 30.858   ! EMO, EFA - NODE CONSTITUENT PROPERTIES
0.005427 30.684   ! EMO, EFA - NODE CONSTITUENT PROPERTIES
0.005398 30.480   ! EMO, EFA - NODE CONSTITUENT PROPERTIES
0.005384 30.342   ! EMO, EFA - NODE CONSTITUENT PROPERTIES
0.005369 30.166   ! EMO, EFA - NODE CONSTITUENT PROPERTIES
0.005352 29.962   ! EMO, EFA - NODE CONSTITUENT PROPERTIES
0.005341 29.789   ! EMO, EFA - NODE CONSTITUENT PROPERTIES
0.005324 29.468   ! EMO, EFA - NODE CONSTITUENT PROPERTIES
0.005315 29.185   ! EMO, EFA - NODE CONSTITUENT PROPERTIES
0.005306 28.964   ! EMO, EFA - NODE CONSTITUENT PROPERTIES
0.005298 28.600   ! EMO, EFA - NODE CONSTITUENT PROPERTIES
0.005295 28.220   ! EMO, EFA - NODE CONSTITUENT PROPERTIES
0.005296 27.997   ! EMO, EFA - NODE CONSTITUENT PROPERTIES
0.005293 27.639   ! EMO, EFA - NODE CONSTITUENT PROPERTIES
0.005291 27.207   ! EMO, EFA - NODE CONSTITUENT PROPERTIES
0.005308 27.062   ! EMO, EFA - NODE CONSTITUENT PROPERTIES
0.005323 26.857   ! EMO, EFA - NODE CONSTITUENT PROPERTIES
0.005314 26.290   ! EMO, EFA - NODE CONSTITUENT PROPERTIES
0.005313 25.910   ! EMO, EFA - NODE CONSTITUENT PROPERTIES
0.005314 25.574   ! EMO, EFA - NODE CONSTITUENT PROPERTIES
0.005330 25.397   ! EMO, EFA - NODE CONSTITUENT PROPERTIES
0.005330 25.005   ! EMO, EFA - NODE CONSTITUENT PROPERTIES
0.005342 24.704   ! EMO, EFA - NODE CONSTITUENT PROPERTIES
0.005356 24.390   ! EMO, EFA - NODE CONSTITUENT PROPERTIES
0.005375 24.163   ! EMO, EFA - NODE CONSTITUENT PROPERTIES
0.005403 24.004   ! EMO, EFA - NODE CONSTITUENT PROPERTIES
0.000000 0.000   ! EMO, EFA - NODE CONSTITUENT PROPERTIES
M2                                       ! ALPHA - NAME OF TIDAL FORCING CONSTITUENT
0.076839 57.848   ! EMO, EFA - NODE CONSTITUENT PROPERTIES
0.076523 58.188   ! EMO, EFA - NODE CONSTITUENT PROPERTIES
0.075996 58.645   ! EMO, EFA - NODE CONSTITUENT PROPERTIES
0.075106 59.298   ! EMO, EFA - NODE CONSTITUENT PROPERTIES
0.074482 59.760   ! EMO, EFA - NODE CONSTITUENT PROPERTIES
0.073769 60.305   ! EMO, EFA - NODE CONSTITUENT PROPERTIES
0.072772 61.203   ! EMO, EFA - NODE CONSTITUENT PROPERTIES
0.072124 61.855   ! EMO, EFA - NODE CONSTITUENT PROPERTIES
0.071411 62.493   ! EMO, EFA - NODE CONSTITUENT PROPERTIES
0.070370 63.431   ! EMO, EFA - NODE CONSTITUENT PROPERTIES
0.069671 64.278   ! EMO, EFA - NODE CONSTITUENT PROPERTIES
0.069001 65.038   ! EMO, EFA - NODE CONSTITUENT PROPERTIES
0.068353 65.696   ! EMO, EFA - NODE CONSTITUENT PROPERTIES
0.067830 66.268   ! EMO, EFA - NODE CONSTITUENT PROPERTIES
0.067480 66.634   ! EMO, EFA - NODE CONSTITUENT PROPERTIES
0.067013 67.098   ! EMO, EFA - NODE CONSTITUENT PROPERTIES
0.066523 67.656   ! EMO, EFA - NODE CONSTITUENT PROPERTIES
0.066297 67.875   ! EMO, EFA - NODE CONSTITUENT PROPERTIES
0.000000 0.000   ! EMO, EFA - NODE CONSTITUENT PROPERTIES
0.207712 15.844   ! EMO, EFA - NODE CONSTITUENT PROPERTIES
0.204011 15.880   ! EMO, EFA - NODE CONSTITUENT PROPERTIES
0.199458 15.707   ! EMO, EFA - NODE CONSTITUENT PROPERTIES
0.196311 15.343   ! EMO, EFA - NODE CONSTITUENT PROPERTIES
0.193907 14.731   ! EMO, EFA - NODE CONSTITUENT PROPERTIES
0.192218 13.953   ! EMO, EFA - NODE CONSTITUENT PROPERTIES
0.191920 13.208   ! EMO, EFA - NODE CONSTITUENT PROPERTIES
0.192281 12.734   ! EMO, EFA - NODE CONSTITUENT PROPERTIES
0.193338 12.197   ! EMO, EFA - NODE CONSTITUENT PROPERTIES
0.195172 11.673   ! EMO, EFA - NODE CONSTITUENT PROPERTIES
0.196992 11.122   ! EMO, EFA - NODE CONSTITUENT PROPERTIES
0.198530 10.738   ! EMO, EFA - NODE CONSTITUENT PROPERTIES
0.201794 10.018   ! EMO, EFA - NODE CONSTITUENT PROPERTIES
0.203894 9.775   ! EMO, EFA - NODE CONSTITUENT PROPERTIES
0.205399 9.500   ! EMO, EFA - NODE CONSTITUENT PROPERTIES
0.207577 9.376   ! EMO, EFA - NODE CONSTITUENT PROPERTIES
0.209630 9.215   ! EMO, EFA - NODE CONSTITUENT PROPERTIES
0.210605 9.165   ! EMO, EFA - NODE CONSTITUENT PROPERTIES
0.211155 9.169   ! EMO, EFA - NODE CONSTITUENT PROPERTIES
0.212125 9.173   ! EMO, EFA - NODE CONSTITUENT PROPERTIES
0.212599 9.146   ! EMO, EFA - NODE CONSTITUENT PROPERTIES
0.213175 9.160   ! EMO, EFA - NODE CONSTITUENT PROPERTIES
0.213525 9.184   ! EMO, EFA - NODE CONSTITUENT PROPERTIES
0.000000 0.000   ! EMO, EFA - NODE CONSTITUENT PROPERTIES
0.000000 0.000   ! EMO, EFA - NODE CONSTITUENT PROPERTIES
0.049768 114.745   ! EMO, EFA - NODE CONSTITUENT PROPERTIES
0.049501 113.854   ! EMO, EFA - NODE CONSTITUENT PROPERTIES
0.049083 113.027   ! EMO, EFA - NODE CONSTITUENT PROPERTIES
0.048620 112.435   ! EMO, EFA - NODE CONSTITUENT PROPERTIES
0.048347 111.648   ! EMO, EFA - NODE CONSTITUENT PROPERTIES
0.047489 111.778   ! EMO, EFA - NODE CONSTITUENT PROPERTIES
0.047302 110.673   ! EMO, EFA - NODE CONSTITUENT PROPERTIES
0.046917 110.947   ! EMO, EFA - NODE CONSTITUENT PROPERTIES
0.046404 114.733   ! EMO, EFA - NODE CONSTITUENT PROPERTIES
0.046328 115.922   ! EMO, EFA - NODE CONSTITUENT PROPERTIES
0.046031 115.662   ! EMO, EFA - NODE CONSTITUENT PROPERTIES
0.045266 116.601   ! EMO, EFA - NODE CONSTITUENT PROPERTIES
0.045273 117.046   ! EMO, EFA - NODE CONSTITUENT PROPERTIES
0.044604 117.803   ! EMO, EFA - NODE CONSTITUENT PROPERTIES
0.044193 119.386   ! EMO, EFA - NODE CONSTITUENT PROPERTIES
0.044068 120.053   ! EMO, EFA - NODE CONSTITUENT PROPERTIES
0.043891 120.617   ! EMO, EFA - NODE CONSTITUENT PROPERTIES
0.043544 120.676   ! EMO, EFA - NODE CONSTITUENT PROPERTIES
0.043020 120.855   ! EMO, EFA - NODE CONSTITUENT PROPERTIES
0.042766 121.659   ! EMO, EFA - NODE CONSTITUENT PROPERTIES
0.042287 122.734   ! EMO, EFA - NODE CONSTITUENT PROPERTIES
0.042204 122.806   ! EMO, EFA - NODE CONSTITUENT PROPERTIES
0.041931 123.499   ! EMO, EFA - NODE CONSTITUENT PROPERTIES
0.041380 124.827   ! EMO, EFA - NODE CONSTITUENT PROPERTIES
0.041075 125.277   ! EMO, EFA - NODE CONSTITUENT PROPERTIES
0.040727 126.020   ! EMO, EFA - NODE CONSTITUENT PROPERTIES
0.040430 126.463   ! EMO, EFA - NODE CONSTITUENT PROPERTIES
0.040187 126.722   ! EMO, EFA - NODE CONSTITUENT PROPERTIES
0.039903 126.989   ! EMO, EFA - NODE CONSTITUENT PROPERTIES
0.039717 127.262   ! EMO, EFA - NODE CONSTITUENT PROPERTIES
0.039478 127.571   ! EMO, EFA - NODE CONSTITUENT PROPERTIES
0.039217 127.883   ! EMO, EFA - NODE CONSTITUENT PROPERTIES
0.038971 128.084   ! EMO, EFA - NODE CONSTITUENT PROPERTIES
0.038633 128.353   ! EMO, EFA - NODE CONSTITUENT PROPERTIES
0.038291 128.431   ! EMO, EFA - NODE CONSTITUENT PROPERTIES
0.037954 128.583   ! EMO, EFA - NODE CONSTITUENT PROPERTIES
0.037607 128.689   ! EMO, EFA - NODE CONSTITUENT PROPERTIES
0.037228 128.717   ! EMO, EFA - NODE CONSTITUENT PROPERTIES
0.036932 128.673   ! EMO, EFA - NODE CONSTITUENT PROPERTIES
0.036622 128.703   ! EMO, EFA - NODE CONSTITUENT PROPERTIES
0.036252 128.710   ! EMO, EFA - NODE CONSTITUENT PROPERTIES
0.036073 128.493   ! EMO, EFA - NODE CONSTITUENT PROPERTIES
0.035866 128.320   ! EMO, EFA - NODE CONSTITUENT PROPERTIES
0.035448 128.398   ! EMO, EFA - NODE CONSTITUENT PROPERTIES
0.035146 128.372   ! EMO, EFA - NODE CONSTITUENT PROPERTIES
0.034893 128.360   ! EMO, EFA - NODE CONSTITUENT PROPERTIES
0.034738 128.157   ! EMO, EFA - NODE CONSTITUENT PROPERTIES
0.034456 128.145   ! EMO, EFA - NODE CONSTITUENT PROPERTIES
0.034218 127.979   ! EMO, EFA - NODE CONSTITUENT PROPERTIES
0.033979 127.802   ! EMO, EFA - NODE CONSTITUENT PROPERTIES
0.033791 127.551   ! EMO, EFA - NODE CONSTITUENT PROPERTIES
0.033635 127.184   ! EMO, EFA - NODE CONSTITUENT PROPERTIES
0.000000 0.000   ! EMO, EFA - NODE CONSTITUENT PROPERTIES
M4                                       ! ALPHA - NAME OF TIDAL FORCING CONSTITUENT
0.000593 83.253   ! EMO, EFA - NODE CONSTITUENT PROPERTIES
0.000594 82.923   ! EMO, EFA - NODE CONSTITUENT PROPERTIES
0.000597 82.636   ! EMO, EFA - NODE CONSTITUENT PROPERTIES
0.000601 82.280   ! EMO, EFA - NODE CONSTITUENT PROPERTIES
0.000604 82.073   ! EMO, EFA - NODE CONSTITUENT PROPERTIES
0.000606 81.867   ! EMO, EFA - NODE CONSTITUENT PROPERTIES
0.000610 81.530   ! EMO, EFA - NODE CONSTITUENT PROPERTIES
0.000612 81.357   ! EMO, EFA - NODE CONSTITUENT PROPERTIES
0.000613 81.305   ! EMO, EFA - NODE CONSTITUENT PROPERTIES
0.000613 81.287   ! EMO, EFA - NODE CONSTITUENT PROPERTIES
0.000613 81.237   ! EMO, EFA - NODE CONSTITUENT PROPERTIES
0.000613 81.300   ! EMO, EFA - NODE CONSTITUENT PROPERTIES
0.000612 81.549   ! EMO, EFA - NODE CONSTITUENT PROPERTIES
0.000610 81.818   ! EMO, EFA - NODE CONSTITUENT PROPERTIES
0.000609 82.104   ! EMO, EFA - NODE CONSTITUENT PROPERTIES
0.000606 82.562   ! EMO, EFA - NODE CONSTITUENT PROPERTIES
0.000603 83.232   ! EMO, EFA - NODE CONSTITUENT PROPERTIES
0.000600 83.520   ! EMO, EFA - NODE CONSTITUENT PROPERTIES
0.000000 0.000   ! EMO, EFA - NODE CONSTITUENT PROPERTIES
0.000864 132.074   ! EMO, EFA - NODE CONSTITUENT PROPERTIES
0.000863 131.665   ! EMO, EFA - NODE CONSTITUENT PROPERTIES
0.000822 133.528   ! EMO, EFA - NODE CONSTITUENT PROPERTIES
0.000794 132.666   ! EMO, EFA - NODE CONSTITUENT PROPERTIES
0.000801 132.343   ! EMO, EFA - NODE CONSTITUENT PROPERTIES
0.000806 132.323   ! EMO, EFA - NODE CONSTITUENT PROPERTIES
0.000812 132.855   ! EMO, EFA - NODE CONSTITUENT PROPERTIES
0.000805 132.761   ! EMO, EFA - NODE CONSTITUENT PROPERTIES
0.000803 133.184   ! EMO, EFA - NODE CONSTITUENT PROPERTIES
0.000800 133.596   ! EMO, EFA - NODE CONSTITUENT PROPERTIES
0.000798 134.143   ! EMO, EFA - NODE CONSTITUENT PROPERTIES
0.000796 134.599   ! EMO, EFA - NODE CONSTITUENT PROPERTIES
0.000792 135.591   ! EMO, EFA - NODE CONSTITUENT PROPERTIES
0.000788 136.038   ! EMO, EFA - NODE CONSTITUENT PROPERTIES
0.000788 136.743   ! EMO, EFA - NODE CONSTITUENT PROPERTIES
0.000786 137.301   ! EMO, EFA - NODE CONSTITUENT PROPERTIES
0.000781 138.042   ! EMO, EFA - NODE CONSTITUENT PROPERTIES
0.000777 138.398   ! EMO, EFA - NODE CONSTITUENT PROPERTIES
0.000775 138.550   ! EMO, EFA - NODE CONSTITUENT PROPERTIES
0.000769 138.799   ! EMO, EFA - NODE CONSTITUENT PROPERTIES
0.000766 139.026   ! EMO, EFA - NODE CONSTITUENT PROPERTIES
0.000762 139.241   ! EMO, EFA - NODE CONSTITUENT PROPERTIES
0.000759 139.406   ! EMO, EFA - NODE CONSTITUENT PROPERTIES
0.000000 0.000   ! EMO, EFA - NODE CONSTITUENT PROPERTIES
0.000000 0.000   ! EMO, EFA - NODE CONSTITUENT PROPERTIES
0.000248 147.420   ! EMO, EFA - NODE CONSTITUENT PROPERTIES
0.000247 145.468   ! EMO, EFA - NODE CONSTITUENT PROPERTIES
0.000245 143.292   ! EMO, EFA - NODE CONSTITUENT PROPERTIES
0.000243 141.668   ! EMO, EFA - NODE CONSTITUENT PROPERTIES
0.000242 139.659   ! EMO, EFA - NODE CONSTITUENT PROPERTIES
0.000236 138.636   ! EMO, EFA - NODE CONSTITUENT PROPERTIES
0.000236 135.801   ! EMO, EFA - NODE CONSTITUENT PROPERTIES
0.000233 130.597   ! EMO, EFA - NODE CONSTITUENT PROPERTIES
0.000218 136.947   ! EMO, EFA - NODE CONSTITUENT PROPERTIES
0.000212 141.563   ! EMO, EFA - NODE CONSTITUENT PROPERTIES
0.000211 141.871   ! EMO, EFA - NODE CONSTITUENT PROPERTIES
0.000204 141.139   ! EMO, EFA - NODE CONSTITUENT PROPERTIES
0.000196 140.825   ! EMO, EFA - NODE CONSTITUENT PROPERTIES
0.000190 139.095   ! EMO, EFA - NODE CONSTITUENT PROPERTIES
0.000178 139.797   ! EMO, EFA - NODE CONSTITUENT PROPERTIES
0.000173 138.575   ! EMO, EFA - NODE CONSTITUENT PROPERTIES
0.000167 136.775   ! EMO, EFA - NODE CONSTITUENT PROPERTIES
0.000164 134.937   ! EMO, EFA - NODE CONSTITUENT PROPERTIES
0.000159 131.742   ! EMO, EFA - NODE CONSTITUENT PROPERTIES
0.000154 129.483   ! EMO, EFA - NODE CONSTITUENT PROPERTIES
0.000147 125.206   ! EMO, EFA - NODE CONSTITUENT PROPERTIES
0.000143 121.365   ! EMO, EFA - NODE CONSTITUENT PROPERTIES
0.000138 117.357   ! EMO, EFA - NODE CONSTITUENT PROPERTIES
0.000131 112.925   ! EMO, EFA - NODE CONSTITUENT PROPERTIES
0.000129 106.838   ! EMO, EFA - NODE CONSTITUENT PROPERTIES
0.000126 101.589   ! EMO, EFA - NODE CONSTITUENT PROPERTIES
0.000126 96.415   ! EMO, EFA - NODE CONSTITUENT PROPERTIES
0.000129 91.951   ! EMO, EFA - NODE CONSTITUENT PROPERTIES
0.000133 87.603   ! EMO, EFA - NODE CONSTITUENT PROPERTIES
0.000135 84.415   ! EMO, EFA - NODE CONSTITUENT PROPERTIES
0.000138 80.814   ! EMO, EFA - NODE CONSTITUENT PROPERTIES
0.000142 76.845   ! EMO, EFA - NODE CONSTITUENT PROPERTIES
0.000146 73.592   ! EMO, EFA - NODE CONSTITUENT PROPERTIES
0.000153 70.218   ! EMO, EFA - NODE CONSTITUENT PROPERTIES
0.000160 67.561   ! EMO, EFA - NODE CONSTITUENT PROPERTIES
0.000170 63.336   ! EMO, EFA - NODE CONSTITUENT PROPERTIES
0.000178 61.270   ! EMO, EFA - NODE CONSTITUENT PROPERTIES
0.000186 59.458   ! EMO, EFA - NODE CONSTITUENT PROPERTIES
0.000196 56.965   ! EMO, EFA - NODE CONSTITUENT PROPERTIES
0.000203 55.753   ! EMO, EFA - NODE CONSTITUENT PROPERTIES
0.000211 54.759   ! EMO, EFA - NODE CONSTITUENT PROPERTIES
0.000215 53.823   ! EMO, EFA - NODE CONSTITUENT PROPERTIES
0.000220 52.965   ! EMO, EFA - NODE CONSTITUENT PROPERTIES
0.000230 51.781   ! EMO, EFA - NODE CONSTITUENT PROPERTIES
0.000238 50.977   ! EMO, EFA - NODE CONSTITUENT PROPERTIES