mangrove_lagonave                        ! 32 CHARACTER ALPHANUMERIC RUN DESCRIPTION
test1                                    ! 24 CHARACTER ALPHANUMERIC RUN IDENTIFICATION
1                                        ! NFOVER - NONFATAL ERROR OVERRIDE OPTION
0                                        ! NABOUT - ABREVIATED OUTPUT OPTION PARAMETER
1000                                     ! NSCREEN - OUTPUT TO UNIT 6 PARAMETER
0                                        ! IHOT - HOT START OPTION PARAMETER
2                                        ! ICS - COORDINATE SYSTEM OPTION PARAMETER
0                                        ! IM - MODEL RUN TYPE: 0,10,20,30 = 2DDI, 1,11,21,31 = 3D(VS), 2 = 3D(DSS)
1                                        ! NOLIBF - NONLINEAR BOTTOM FRICTION OPTION
0                                        ! NOLIFA - OPTION TO INCLUDE FINITE AMPLITUDE TERMS
0                                        ! NOLICA - OPTION TO INCLUDE CONVECTIVE ACCELERATION TERMS
0                                        ! NOLICAT - OPTION TO CONSIDER TIME DERIVATIVE OF CONV ACC TERMS
0                                        ! NWP - Number of nodal attributes.
0                                        ! NCOR - VARIABLE CORIOLIS IN SPACE OPTION PARAMETER
1                                        ! NTIP - TIDAL POTENTIAL OPTION PARAMETER
0                                        ! NWS - WIND STRESS AND BAROMETRIC PRESSURE OPTION PARAMETER
0                                        ! NRAMP - RAMP FUNCTION OPTION
9.80665                                  ! G - ACCELERATION DUE TO GRAVITY - DETERMINES UNITS
0                                        ! TAU0 - WEIGHTING FACTOR IN GWCE
1.0                                      ! DTDP - TIME STEP (IN SECONDS)
0.0                                      ! STATIM - STARTING SIMULATION TIME IN DAYS
0.0                                      ! REFTIME - REFERENCE TIME (IN DAYS) FOR NODAL FACTORS AND EQUILIBRIUM ARGS
5.0                                      ! RNDAY - TOTAL LENGTH OF SIMULATION (IN DAYS)
0.00000                                  ! DRAMP - DURATION OF RAMP FUNCTION (IN DAYS)
0.350000 0.300000 0.350000               ! TIME WEIGHTING FACTORS FOR THE GWCE EQUATION
0.05                                     ! H0 - MINIMUM WATER DEPTH AND DRYING/WETTING OPTIONS
-72.713079 23.350889                     ! SLAM0, SFEA0 - LONGITUDE AND LATITUDE ON WHICH THE CPP COORDINATE PROJECTION IS CENTERED
0.0025                                   ! CF
3.0                                      ! ESLM - SPATIALLY CONSTANT HORIZONTAL EDDY VISCOSITY FOR THE MOMENTUM EQUATIONS
0.0                                      ! CORI - CONSTANT CORIOLIS COEFFICIENT
13                                       ! NTIF - NUMBER OF TIDAL POTENTIAL CONSTITUENTS
2N2                                      ! TIPOTAG - NAME OF TIDAL POTENTIAL CONSTITUENT
0.0 0.000135240496464 0.069 1.0879740880078232 43.169899207455614  ! TPK, AMIGT, ETRF, FFT, FACET - CONSTITUENT PROPERTIES
K1                                       ! TIPOTAG - NAME OF TIDAL POTENTIAL CONSTITUENT
0.141565 7.2921158358e-05 0.736 0.4841606934357664 18.29634613642088  ! TPK, AMIGT, ETRF, FFT, FACET - CONSTITUENT PROPERTIES
K2                                       ! TIPOTAG - NAME OF TIDAL POTENTIAL CONSTITUENT
0.030704 0.000145842317201 0.693 0.3473663645295511 217.1071990209034  ! TPK, AMIGT, ETRF, FFT, FACET - CONSTITUENT PROPERTIES
L2                                       ! TIPOTAG - NAME OF TIDAL POTENTIAL CONSTITUENT
0.0 0.000143158105531 0.069 0.0 0.0      ! TPK, AMIGT, ETRF, FFT, FACET - CONSTITUENT PROPERTIES
M2                                       ! TIPOTAG - NAME OF TIDAL POTENTIAL CONSTITUENT
0.242334 0.000140518902509 0.693 1.0879740880078232 352.8700376281254  ! TPK, AMIGT, ETRF, FFT, FACET - CONSTITUENT PROPERTIES
MU2                                      ! TIPOTAG - NAME OF TIDAL POTENTIAL CONSTITUENT
0.0 0.000135593700684 0.069 1.0879740880078232 343.74774955242856  ! TPK, AMIGT, ETRF, FFT, FACET - CONSTITUENT PROPERTIES
N2                                       ! TIPOTAG - NAME OF TIDAL POTENTIAL CONSTITUENT
0.046398 0.000137879699487 0.693 1.0879740880078232 18.01996841779055  ! TPK, AMIGT, ETRF, FFT, FACET - CONSTITUENT PROPERTIES
NU2                                      ! TIPOTAG - NAME OF TIDAL POTENTIAL CONSTITUENT
0.0 0.000138232903707 0.069 1.0879740880078232 318.5978187627634  ! TPK, AMIGT, ETRF, FFT, FACET - CONSTITUENT PROPERTIES
O1                                       ! TIPOTAG - NAME OF TIDAL POTENTIAL CONSTITUENT
0.100514 6.7597744151e-05 0.695 0.23558992869104997 331.2668934731015  ! TPK, AMIGT, ETRF, FFT, FACET - CONSTITUENT PROPERTIES
P1                                       ! TIPOTAG - NAME OF TIDAL POTENTIAL CONSTITUENT
0.046834 7.2522945975e-05 0.706 1.0 349.45656396799995  ! TPK, AMIGT, ETRF, FFT, FACET - CONSTITUENT PROPERTIES
Q1                                       ! TIPOTAG - NAME OF TIDAL POTENTIAL CONSTITUENT
0.019256 6.4958541129e-05 0.695 0.23558992869104997 356.4168242627667  ! TPK, AMIGT, ETRF, FFT, FACET - CONSTITUENT PROPERTIES
S2                                       ! TIPOTAG - NAME OF TIDAL POTENTIAL CONSTITUENT
0.112841 0.000145444104333 0.693 1.0 360.0  ! TPK, AMIGT, ETRF, FFT, FACET - CONSTITUENT PROPERTIES
T2                                       ! TIPOTAG - NAME OF TIDAL POTENTIAL CONSTITUENT
0.0 0.000145245007353 0.069 1.0 2.5658205594796186  ! TPK, AMIGT, ETRF, FFT, FACET - CONSTITUENT PROPERTIES
13                                       ! NBFR - NUMBER OF PERIODIC FORCING FREQUENCIES ON ELEVATION SPECIFIED BOUNDARIES
2N2                                      ! BOUNTAG - NAME OF TIDAL FORCING CONSTITUENT
0.000135240496464 1.0879740880078232 43.169899207455614   ! AMIG, FF, FACE - CONSTITUENT PROPERTIES
K1                                       ! BOUNTAG - NAME OF TIDAL FORCING CONSTITUENT
7.2921158358e-05 0.4841606934357664 18.29634613642088   ! AMIG, FF, FACE - CONSTITUENT PROPERTIES
K2                                       ! BOUNTAG - NAME OF TIDAL FORCING CONSTITUENT
0.000145842317201 0.3473663645295511 217.1071990209034   ! AMIG, FF, FACE - CONSTITUENT PROPERTIES
L2                                       ! BOUNTAG - NAME OF TIDAL FORCING CONSTITUENT
0.000143158105531 0.0 0.0   ! AMIG, FF, FACE - CONSTITUENT PROPERTIES
M2                                       ! BOUNTAG - NAME OF TIDAL FORCING CONSTITUENT
0.000140518902509 1.0879740880078232 352.8700376281254   ! AMIG, FF, FACE - CONSTITUENT PROPERTIES
MU2                                      ! BOUNTAG - NAME OF TIDAL FORCING CONSTITUENT
0.000135593700684 1.0879740880078232 343.74774955242856   ! AMIG, FF, FACE - CONSTITUENT PROPERTIES
N2                                       ! BOUNTAG - NAME OF TIDAL FORCING CONSTITUENT
0.000137879699487 1.0879740880078232 18.01996841779055   ! AMIG, FF, FACE - CONSTITUENT PROPERTIES
NU2                                      ! BOUNTAG - NAME OF TIDAL FORCING CONSTITUENT
0.000138232903707 1.0879740880078232 318.5978187627634   ! AMIG, FF, FACE - CONSTITUENT PROPERTIES
O1                                       ! BOUNTAG - NAME OF TIDAL FORCING CONSTITUENT
6.7597744151e-05 0.23558992869104997 331.2668934731015   ! AMIG, FF, FACE - CONSTITUENT PROPERTIES
P1                                       ! BOUNTAG - NAME OF TIDAL FORCING CONSTITUENT
7.2522945975e-05 1.0 349.45656396799995   ! AMIG, FF, FACE - CONSTITUENT PROPERTIES
Q1                                       ! BOUNTAG - NAME OF TIDAL FORCING CONSTITUENT
6.4958541129e-05 0.23558992869104997 356.4168242627667   ! AMIG, FF, FACE - CONSTITUENT PROPERTIES
S2                                       ! BOUNTAG - NAME OF TIDAL FORCING CONSTITUENT
0.000145444104333 1.0 360.0   ! AMIG, FF, FACE - CONSTITUENT PROPERTIES
T2                                       ! BOUNTAG - NAME OF TIDAL FORCING CONSTITUENT
0.000145245007353 1.0 2.5658205594796186   ! AMIG, FF, FACE - CONSTITUENT PROPERTIES
2N2                                      ! ALPHA - NAME OF TIDAL FORCING CONSTITUENT
0.028231 322.919   ! EMO, EFA - NODE CONSTITUENT PROPERTIES
0.026194 321.748   ! EMO, EFA - NODE CONSTITUENT PROPERTIES
0.025460 321.153   ! EMO, EFA - NODE CONSTITUENT PROPERTIES
0.024852 320.907   ! EMO, EFA - NODE CONSTITUENT PROPERTIES
0.023938 321.088   ! EMO, EFA - NODE CONSTITUENT PROPERTIES
0.023611 320.981   ! EMO, EFA - NODE CONSTITUENT PROPERTIES
0.023247 320.785   ! EMO, EFA - NODE CONSTITUENT PROPERTIES
0.022936 320.656   ! EMO, EFA - NODE CONSTITUENT PROPERTIES
0.022835 320.592   ! EMO, EFA - NODE CONSTITUENT PROPERTIES
0.022950 320.408   ! EMO, EFA - NODE CONSTITUENT PROPERTIES
0.022827 320.273   ! EMO, EFA - NODE CONSTITUENT PROPERTIES
0.022566 320.950   ! EMO, EFA - NODE CONSTITUENT PROPERTIES
0.022365 321.359   ! EMO, EFA - NODE CONSTITUENT PROPERTIES
0.022231 321.386   ! EMO, EFA - NODE CONSTITUENT PROPERTIES
0.021959 319.579   ! EMO, EFA - NODE CONSTITUENT PROPERTIES
0.021837 318.544   ! EMO, EFA - NODE CONSTITUENT PROPERTIES
0.020455 315.358   ! EMO, EFA - NODE CONSTITUENT PROPERTIES
0.018583 310.740   ! EMO, EFA - NODE CONSTITUENT PROPERTIES
0.016900 308.425   ! EMO, EFA - NODE CONSTITUENT PROPERTIES
0.016542 312.016   ! EMO, EFA - NODE CONSTITUENT PROPERTIES
0.016796 308.293   ! EMO, EFA - NODE CONSTITUENT PROPERTIES
0.016465 307.944   ! EMO, EFA - NODE CONSTITUENT PROPERTIES
0.014678 310.805   ! EMO, EFA - NODE CONSTITUENT PROPERTIES
0.016257 307.755   ! EMO, EFA - NODE CONSTITUENT PROPERTIES
0.015728 307.274   ! EMO, EFA - NODE CONSTITUENT PROPERTIES
0.015021 306.684   ! EMO, EFA - NODE CONSTITUENT PROPERTIES
0.014137 306.044   ! EMO, EFA - NODE CONSTITUENT PROPERTIES
0.012429 305.517   ! EMO, EFA - NODE CONSTITUENT PROPERTIES
0.010306 307.013   ! EMO, EFA - NODE CONSTITUENT PROPERTIES
0.008586 312.041   ! EMO, EFA - NODE CONSTITUENT PROPERTIES
0.009280 318.570   ! EMO, EFA - NODE CONSTITUENT PROPERTIES
0.009502 321.442   ! EMO, EFA - NODE CONSTITUENT PROPERTIES
0.009349 321.827   ! EMO, EFA - NODE CONSTITUENT PROPERTIES
0.008870 320.958   ! EMO, EFA - NODE CONSTITUENT PROPERTIES
0.008064 318.355   ! EMO, EFA - NODE CONSTITUENT PROPERTIES
0.006943 313.334   ! EMO, EFA - NODE CONSTITUENT PROPERTIES
0.005727 304.255   ! EMO, EFA - NODE CONSTITUENT PROPERTIES
0.004639 289.476   ! EMO, EFA - NODE CONSTITUENT PROPERTIES
0.004076 265.953   ! EMO, EFA - NODE CONSTITUENT PROPERTIES
0.004366 238.716   ! EMO, EFA - NODE CONSTITUENT PROPERTIES
0.005555 218.993   ! EMO, EFA - NODE CONSTITUENT PROPERTIES
0.006915 208.132   ! EMO, EFA - NODE CONSTITUENT PROPERTIES
0.008751 200.639   ! EMO, EFA - NODE CONSTITUENT PROPERTIES
0.010803 195.618   ! EMO, EFA - NODE CONSTITUENT PROPERTIES
0.012964 192.182   ! EMO, EFA - NODE CONSTITUENT PROPERTIES
0.015409 189.710   ! EMO, EFA - NODE CONSTITUENT PROPERTIES
0.018026 188.379   ! EMO, EFA - NODE CONSTITUENT PROPERTIES
0.017530 187.898   ! EMO, EFA - NODE CONSTITUENT PROPERTIES
0.016109 187.118   ! EMO, EFA - NODE CONSTITUENT PROPERTIES
0.015837 186.635   ! EMO, EFA - NODE CONSTITUENT PROPERTIES
0.016416 186.868   ! EMO, EFA - NODE CONSTITUENT PROPERTIES
0.017321 187.468   ! EMO, EFA - NODE CONSTITUENT PROPERTIES
0.017877 188.102   ! EMO, EFA - NODE CONSTITUENT PROPERTIES
K1                                       ! ALPHA - NAME OF TIDAL FORCING CONSTITUENT
0.077648 170.560   ! EMO, EFA - NODE CONSTITUENT PROPERTIES
0.078416 171.928   ! EMO, EFA - NODE CONSTITUENT PROPERTIES
0.078584 172.610   ! EMO, EFA - NODE CONSTITUENT PROPERTIES
0.076927 173.166   ! EMO, EFA - NODE CONSTITUENT PROPERTIES
0.078413 173.732   ! EMO, EFA - NODE CONSTITUENT PROPERTIES
0.079177 173.681   ! EMO, EFA - NODE CONSTITUENT PROPERTIES
0.080123 173.517   ! EMO, EFA - NODE CONSTITUENT PROPERTIES
0.081000 173.318   ! EMO, EFA - NODE CONSTITUENT PROPERTIES
0.081723 172.972   ! EMO, EFA - NODE CONSTITUENT PROPERTIES
0.082363 172.485   ! EMO, EFA - NODE CONSTITUENT PROPERTIES
0.081227 171.572   ! EMO, EFA - NODE CONSTITUENT PROPERTIES
0.080100 171.947   ! EMO, EFA - NODE CONSTITUENT PROPERTIES
0.079416 172.203   ! EMO, EFA - NODE CONSTITUENT PROPERTIES
0.079292 172.212   ! EMO, EFA - NODE CONSTITUENT PROPERTIES
0.079209 170.671   ! EMO, EFA - NODE CONSTITUENT PROPERTIES
0.078926 169.946   ! EMO, EFA - NODE CONSTITUENT PROPERTIES
0.074520 167.658   ! EMO, EFA - NODE CONSTITUENT PROPERTIES
0.061860 165.487   ! EMO, EFA - NODE CONSTITUENT PROPERTIES
0.056638 164.557   ! EMO, EFA - NODE CONSTITUENT PROPERTIES
0.055891 166.653   ! EMO, EFA - NODE CONSTITUENT PROPERTIES
0.056352 164.486   ! EMO, EFA - NODE CONSTITUENT PROPERTIES
0.055429 164.233   ! EMO, EFA - NODE CONSTITUENT PROPERTIES
0.050127 164.652   ! EMO, EFA - NODE CONSTITUENT PROPERTIES
0.054944 164.063   ! EMO, EFA - NODE CONSTITUENT PROPERTIES
0.053699 163.594   ! EMO, EFA - NODE CONSTITUENT PROPERTIES
0.052053 162.908   ! EMO, EFA - NODE CONSTITUENT PROPERTIES
0.050295 161.880   ! EMO, EFA - NODE CONSTITUENT PROPERTIES
0.047470 159.430   ! EMO, EFA - NODE CONSTITUENT PROPERTIES
0.044696 155.738   ! EMO, EFA - NODE CONSTITUENT PROPERTIES
0.041777 151.540   ! EMO, EFA - NODE CONSTITUENT PROPERTIES
0.036329 152.065   ! EMO, EFA - NODE CONSTITUENT PROPERTIES
0.031510 154.956   ! EMO, EFA - NODE CONSTITUENT PROPERTIES
0.028265 159.358   ! EMO, EFA - NODE CONSTITUENT PROPERTIES
0.024971 167.305   ! EMO, EFA - NODE CONSTITUENT PROPERTIES
0.022683 179.059   ! EMO, EFA - NODE CONSTITUENT PROPERTIES
0.022082 194.055   ! EMO, EFA - NODE CONSTITUENT PROPERTIES
0.023374 209.297   ! EMO, EFA - NODE CONSTITUENT PROPERTIES
0.026148 221.013   ! EMO, EFA - NODE CONSTITUENT PROPERTIES
0.030284 230.324   ! EMO, EFA - NODE CONSTITUENT PROPERTIES
0.035078 237.049   ! EMO, EFA - NODE CONSTITUENT PROPERTIES
0.040055 241.700   ! EMO, EFA - NODE CONSTITUENT PROPERTIES
0.044571 244.736   ! EMO, EFA - NODE CONSTITUENT PROPERTIES
0.049557 247.376   ! EMO, EFA - NODE CONSTITUENT PROPERTIES
0.055178 249.473   ! EMO, EFA - NODE CONSTITUENT PROPERTIES
0.061371 251.109   ! EMO, EFA - NODE CONSTITUENT PROPERTIES
0.068352 252.371   ! EMO, EFA - NODE CONSTITUENT PROPERTIES
0.075494 253.392   ! EMO, EFA - NODE CONSTITUENT PROPERTIES
0.080409 250.752   ! EMO, EFA - NODE CONSTITUENT PROPERTIES
0.083741 247.862   ! EMO, EFA - NODE CONSTITUENT PROPERTIES
0.085219 246.924   ! EMO, EFA - NODE CONSTITUENT PROPERTIES
0.087451 246.465   ! EMO, EFA - NODE CONSTITUENT PROPERTIES
0.090269 246.149   ! EMO, EFA - NODE CONSTITUENT PROPERTIES
0.092661 245.825   ! EMO, EFA - NODE CONSTITUENT PROPERTIES
K2                                       ! ALPHA - NAME OF TIDAL FORCING CONSTITUENT
0.026323 15.241   ! EMO, EFA - NODE CONSTITUENT PROPERTIES
0.023913 14.327   ! EMO, EFA - NODE CONSTITUENT PROPERTIES
0.023108 13.641   ! EMO, EFA - NODE CONSTITUENT PROPERTIES
0.022509 12.782   ! EMO, EFA - NODE CONSTITUENT PROPERTIES
0.021340 13.244   ! EMO, EFA - NODE CONSTITUENT PROPERTIES
0.020895 13.401   ! EMO, EFA - NODE CONSTITUENT PROPERTIES
0.020382 13.578   ! EMO, EFA - NODE CONSTITUENT PROPERTIES
0.019927 14.037   ! EMO, EFA - NODE CONSTITUENT PROPERTIES
0.019659 14.954   ! EMO, EFA - NODE CONSTITUENT PROPERTIES
0.019571 15.767   ! EMO, EFA - NODE CONSTITUENT PROPERTIES
0.019397 17.044   ! EMO, EFA - NODE CONSTITUENT PROPERTIES
0.019042 18.374   ! EMO, EFA - NODE CONSTITUENT PROPERTIES
0.018818 19.259   ! EMO, EFA - NODE CONSTITUENT PROPERTIES
0.018778 19.775   ! EMO, EFA - NODE CONSTITUENT PROPERTIES
0.019398 20.836   ! EMO, EFA - NODE CONSTITUENT PROPERTIES
0.019713 20.519   ! EMO, EFA - NODE CONSTITUENT PROPERTIES
0.020876 20.298   ! EMO, EFA - NODE CONSTITUENT PROPERTIES
0.023770 19.202   ! EMO, EFA - NODE CONSTITUENT PROPERTIES
0.024536 18.673   ! EMO, EFA - NODE CONSTITUENT PROPERTIES
0.023515 20.370   ! EMO, EFA - NODE CONSTITUENT PROPERTIES
0.024572 18.650   ! EMO, EFA - NODE CONSTITUENT PROPERTIES
0.024660 18.649   ! EMO, EFA - NODE CONSTITUENT PROPERTIES
0.024130 20.785   ! EMO, EFA - NODE CONSTITUENT PROPERTIES
0.024660 18.650   ! EMO, EFA - NODE CONSTITUENT PROPERTIES
0.024814 18.719   ! EMO, EFA - NODE CONSTITUENT PROPERTIES
0.024860 18.789   ! EMO, EFA - NODE CONSTITUENT PROPERTIES
0.024830 19.112   ! EMO, EFA - NODE CONSTITUENT PROPERTIES
0.024399 20.330   ! EMO, EFA - NODE CONSTITUENT PROPERTIES
0.023739 23.472   ! EMO, EFA - NODE CONSTITUENT PROPERTIES
0.023321 27.858   ! EMO, EFA - NODE CONSTITUENT PROPERTIES
0.024905 28.933   ! EMO, EFA - NODE CONSTITUENT PROPERTIES
0.025268 28.069   ! EMO, EFA - NODE CONSTITUENT PROPERTIES
0.024750 26.061   ! EMO, EFA - NODE CONSTITUENT PROPERTIES
0.023594 22.725   ! EMO, EFA - NODE CONSTITUENT PROPERTIES
0.021625 17.650   ! EMO, EFA - NODE CONSTITUENT PROPERTIES
0.019031 9.999   ! EMO, EFA - NODE CONSTITUENT PROPERTIES
0.016210 358.431   ! EMO, EFA - NODE CONSTITUENT PROPERTIES
0.014145 342.164   ! EMO, EFA - NODE CONSTITUENT PROPERTIES
0.013485 320.297   ! EMO, EFA - NODE CONSTITUENT PROPERTIES
0.014878 297.811   ! EMO, EFA - NODE CONSTITUENT PROPERTIES
0.018177 280.874   ! EMO, EFA - NODE CONSTITUENT PROPERTIES
0.022051 270.505   ! EMO, EFA - NODE CONSTITUENT PROPERTIES
0.027069 262.631   ! EMO, EFA - NODE CONSTITUENT PROPERTIES
0.033163 256.852   ! EMO, EFA - NODE CONSTITUENT PROPERTIES
0.039352 252.709   ! EMO, EFA - NODE CONSTITUENT PROPERTIES
0.046406 249.538   ! EMO, EFA - NODE CONSTITUENT PROPERTIES
0.054080 247.500   ! EMO, EFA - NODE CONSTITUENT PROPERTIES
0.053441 246.187   ! EMO, EFA - NODE CONSTITUENT PROPERTIES
0.050425 244.324   ! EMO, EFA - NODE CONSTITUENT PROPERTIES
0.050285 243.465   ! EMO, EFA - NODE CONSTITUENT PROPERTIES
0.053362 243.736   ! EMO, EFA - NODE CONSTITUENT PROPERTIES
0.057921 244.451   ! EMO, EFA - NODE CONSTITUENT PROPERTIES
0.061348 245.141   ! EMO, EFA - NODE CONSTITUENT PROPERTIES
L2                                       ! ALPHA - NAME OF TIDAL FORCING CONSTITUENT
0.011872 3.553   ! EMO, EFA - NODE CONSTITUENT PROPERTIES
0.010697 3.551   ! EMO, EFA - NODE CONSTITUENT PROPERTIES
0.010243 3.088   ! EMO, EFA - NODE CONSTITUENT PROPERTIES
0.009762 1.735   ! EMO, EFA - NODE CONSTITUENT PROPERTIES
0.009042 2.762   ! EMO, EFA - NODE CONSTITUENT PROPERTIES
0.008803 3.392   ! EMO, EFA - NODE CONSTITUENT PROPERTIES
0.008543 4.241   ! EMO, EFA - NODE CONSTITUENT PROPERTIES
0.008264 5.633   ! EMO, EFA - NODE CONSTITUENT PROPERTIES
0.008039 7.925   ! EMO, EFA - NODE CONSTITUENT PROPERTIES
0.007988 10.021   ! EMO, EFA - NODE CONSTITUENT PROPERTIES
0.007885 12.455   ! EMO, EFA - NODE CONSTITUENT PROPERTIES
0.007687 14.149   ! EMO, EFA - NODE CONSTITUENT PROPERTIES
0.007572 15.195   ! EMO, EFA - NODE CONSTITUENT PROPERTIES
0.007562 15.655   ! EMO, EFA - NODE CONSTITUENT PROPERTIES
0.008062 16.356   ! EMO, EFA - NODE CONSTITUENT PROPERTIES
0.008277 15.512   ! EMO, EFA - NODE CONSTITUENT PROPERTIES
0.008796 12.105   ! EMO, EFA - NODE CONSTITUENT PROPERTIES
0.009230 7.992   ! EMO, EFA - NODE CONSTITUENT PROPERTIES
0.009030 5.983   ! EMO, EFA - NODE CONSTITUENT PROPERTIES
0.008693 8.368   ! EMO, EFA - NODE CONSTITUENT PROPERTIES
0.009018 5.891   ! EMO, EFA - NODE CONSTITUENT PROPERTIES
0.008930 5.631   ! EMO, EFA - NODE CONSTITUENT PROPERTIES
0.008342 7.692   ! EMO, EFA - NODE CONSTITUENT PROPERTIES
0.008930 5.506   ! EMO, EFA - NODE CONSTITUENT PROPERTIES
0.008775 5.180   ! EMO, EFA - NODE CONSTITUENT PROPERTIES
0.008630 4.854   ! EMO, EFA - NODE CONSTITUENT PROPERTIES
0.008389 4.616   ! EMO, EFA - NODE CONSTITUENT PROPERTIES
0.007830 4.937   ! EMO, EFA - NODE CONSTITUENT PROPERTIES
0.007099 7.428   ! EMO, EFA - NODE CONSTITUENT PROPERTIES
0.006499 12.133   ! EMO, EFA - NODE CONSTITUENT PROPERTIES
0.006964 15.155   ! EMO, EFA - NODE CONSTITUENT PROPERTIES
0.007100 15.613   ! EMO, EFA - NODE CONSTITUENT PROPERTIES
0.006933 14.417   ! EMO, EFA - NODE CONSTITUENT PROPERTIES
0.006628 11.893   ! EMO, EFA - NODE CONSTITUENT PROPERTIES
0.006024 7.500   ! EMO, EFA - NODE CONSTITUENT PROPERTIES
0.005218 0.589   ! EMO, EFA - NODE CONSTITUENT PROPERTIES
0.004407 349.358   ! EMO, EFA - NODE CONSTITUENT PROPERTIES
0.003740 332.811   ! EMO, EFA - NODE CONSTITUENT PROPERTIES
0.003495 309.794   ! EMO, EFA - NODE CONSTITUENT PROPERTIES
0.003881 286.057   ! EMO, EFA - NODE CONSTITUENT PROPERTIES
0.004844 268.862   ! EMO, EFA - NODE CONSTITUENT PROPERTIES
0.005918 258.661   ! EMO, EFA - NODE CONSTITUENT PROPERTIES
0.007348 251.173   ! EMO, EFA - NODE CONSTITUENT PROPERTIES
0.009050 245.829   ! EMO, EFA - NODE CONSTITUENT PROPERTIES
0.010746 242.026   ! EMO, EFA - NODE CONSTITUENT PROPERTIES
0.012678 239.313   ! EMO, EFA - NODE CONSTITUENT PROPERTIES
0.014871 237.566   ! EMO, EFA - NODE CONSTITUENT PROPERTIES
0.014604 236.575   ! EMO, EFA - NODE CONSTITUENT PROPERTIES
0.013674 235.016   ! EMO, EFA - NODE CONSTITUENT PROPERTIES
0.013595 234.230   ! EMO, EFA - NODE CONSTITUENT PROPERTIES
0.014322 234.203   ! EMO, EFA - NODE CONSTITUENT PROPERTIES
0.015415 234.524   ! EMO, EFA - NODE CONSTITUENT PROPERTIES
0.016213 234.846   ! EMO, EFA - NODE CONSTITUENT PROPERTIES
M2                                       ! ALPHA - NAME OF TIDAL FORCING CONSTITUENT
0.596700 350.348   ! EMO, EFA - NODE CONSTITUENT PROPERTIES
0.541169 349.862   ! EMO, EFA - NODE CONSTITUENT PROPERTIES
0.518829 349.213   ! EMO, EFA - NODE CONSTITUENT PROPERTIES
0.496532 347.849   ! EMO, EFA - NODE CONSTITUENT PROPERTIES
0.464615 348.434   ! EMO, EFA - NODE CONSTITUENT PROPERTIES
0.452965 348.800   ! EMO, EFA - NODE CONSTITUENT PROPERTIES
0.439726 349.295   ! EMO, EFA - NODE CONSTITUENT PROPERTIES
0.426010 350.177   ! EMO, EFA - NODE CONSTITUENT PROPERTIES
0.414213 351.684   ! EMO, EFA - NODE CONSTITUENT PROPERTIES
0.408237 353.044   ! EMO, EFA - NODE CONSTITUENT PROPERTIES
0.400961 354.853   ! EMO, EFA - NODE CONSTITUENT PROPERTIES
0.390771 356.173   ! EMO, EFA - NODE CONSTITUENT PROPERTIES
0.384576 357.012   ! EMO, EFA - NODE CONSTITUENT PROPERTIES
0.383063 357.441   ! EMO, EFA - NODE CONSTITUENT PROPERTIES
0.398889 358.303   ! EMO, EFA - NODE CONSTITUENT PROPERTIES
0.406615 357.716   ! EMO, EFA - NODE CONSTITUENT PROPERTIES
0.420693 355.247   ! EMO, EFA - NODE CONSTITUENT PROPERTIES
0.424965 351.492   ! EMO, EFA - NODE CONSTITUENT PROPERTIES
0.406579 349.560   ! EMO, EFA - NODE CONSTITUENT PROPERTIES
0.393783 352.047   ! EMO, EFA - NODE CONSTITUENT PROPERTIES
0.405246 349.465   ! EMO, EFA - NODE CONSTITUENT PROPERTIES
0.400767 349.232   ! EMO, EFA - NODE CONSTITUENT PROPERTIES
0.369195 351.454   ! EMO, EFA - NODE CONSTITUENT PROPERTIES
0.398247 349.106   ! EMO, EFA - NODE CONSTITUENT PROPERTIES
0.391319 348.818   ! EMO, EFA - NODE CONSTITUENT PROPERTIES
0.380912 348.455   ! EMO, EFA - NODE CONSTITUENT PROPERTIES
0.367053 348.216   ! EMO, EFA - NODE CONSTITUENT PROPERTIES
0.337458 348.508   ! EMO, EFA - NODE CONSTITUENT PROPERTIES
0.299951 350.896   ! EMO, EFA - NODE CONSTITUENT PROPERTIES
0.270576 355.815   ! EMO, EFA - NODE CONSTITUENT PROPERTIES
0.288059 359.303   ! EMO, EFA - NODE CONSTITUENT PROPERTIES
0.289964 0.198   ! EMO, EFA - NODE CONSTITUENT PROPERTIES
0.282325 359.183   ! EMO, EFA - NODE CONSTITUENT PROPERTIES
0.265530 356.960   ! EMO, EFA - NODE CONSTITUENT PROPERTIES
0.239191 352.695   ! EMO, EFA - NODE CONSTITUENT PROPERTIES
0.204561 345.590   ! EMO, EFA - NODE CONSTITUENT PROPERTIES
0.168198 333.579   ! EMO, EFA - NODE CONSTITUENT PROPERTIES
0.142140 315.316   ! EMO, EFA - NODE CONSTITUENT PROPERTIES
0.135899 289.977   ! EMO, EFA - NODE CONSTITUENT PROPERTIES
0.158280 265.629   ! EMO, EFA - NODE CONSTITUENT PROPERTIES
0.201628 249.425   ! EMO, EFA - NODE CONSTITUENT PROPERTIES
0.250251 240.287   ! EMO, EFA - NODE CONSTITUENT PROPERTIES
0.310466 233.717   ! EMO, EFA - NODE CONSTITUENT PROPERTIES
0.380511 229.147   ! EMO, EFA - NODE CONSTITUENT PROPERTIES
0.451857 225.959   ! EMO, EFA - NODE CONSTITUENT PROPERTIES
0.532438 223.693   ! EMO, EFA - NODE CONSTITUENT PROPERTIES
0.620178 222.371   ! EMO, EFA - NODE CONSTITUENT PROPERTIES
0.610096 221.563   ! EMO, EFA - NODE CONSTITUENT PROPERTIES
0.570451 220.165   ! EMO, EFA - NODE CONSTITUENT PROPERTIES
0.565168 219.465   ! EMO, EFA - NODE CONSTITUENT PROPERTIES
0.593575 219.518   ! EMO, EFA - NODE CONSTITUENT PROPERTIES
0.636825 219.900   ! EMO, EFA - NODE CONSTITUENT PROPERTIES
0.667625 220.233   ! EMO, EFA - NODE CONSTITUENT PROPERTIES
MU2                                      ! ALPHA - NAME OF TIDAL FORCING CONSTITUENT
0.024240 321.170   ! EMO, EFA - NODE CONSTITUENT PROPERTIES
0.022679 319.891   ! EMO, EFA - NODE CONSTITUENT PROPERTIES
0.022140 319.458   ! EMO, EFA - NODE CONSTITUENT PROPERTIES
0.021634 319.782   ! EMO, EFA - NODE CONSTITUENT PROPERTIES
0.020982 320.304   ! EMO, EFA - NODE CONSTITUENT PROPERTIES
0.020771 320.241   ! EMO, EFA - NODE CONSTITUENT PROPERTIES
0.020546 320.065   ! EMO, EFA - NODE CONSTITUENT PROPERTIES
0.020392 319.968   ! EMO, EFA - NODE CONSTITUENT PROPERTIES
0.020464 319.948   ! EMO, EFA - NODE CONSTITUENT PROPERTIES
0.020718 319.788   ! EMO, EFA - NODE CONSTITUENT PROPERTIES
0.020712 319.808   ! EMO, EFA - NODE CONSTITUENT PROPERTIES
0.020508 320.742   ! EMO, EFA - NODE CONSTITUENT PROPERTIES
0.020338 321.310   ! EMO, EFA - NODE CONSTITUENT PROPERTIES
0.020204 321.420   ! EMO, EFA - NODE CONSTITUENT PROPERTIES
0.020080 319.487   ! EMO, EFA - NODE CONSTITUENT PROPERTIES
0.019944 318.280   ! EMO, EFA - NODE CONSTITUENT PROPERTIES
0.018781 315.023   ! EMO, EFA - NODE CONSTITUENT PROPERTIES
0.017380 310.952   ! EMO, EFA - NODE CONSTITUENT PROPERTIES
0.015923 309.613   ! EMO, EFA - NODE CONSTITUENT PROPERTIES
0.015586 312.111   ! EMO, EFA - NODE CONSTITUENT PROPERTIES
0.015832 309.573   ! EMO, EFA - NODE CONSTITUENT PROPERTIES
0.015552 309.431   ! EMO, EFA - NODE CONSTITUENT PROPERTIES
0.014065 312.160   ! EMO, EFA - NODE CONSTITUENT PROPERTIES
0.015382 309.367   ! EMO, EFA - NODE CONSTITUENT PROPERTIES
0.014966 309.343   ! EMO, EFA - NODE CONSTITUENT PROPERTIES
0.014377 309.328   ! EMO, EFA - NODE CONSTITUENT PROPERTIES
0.013607 309.597   ! EMO, EFA - NODE CONSTITUENT PROPERTIES
0.012199 311.110   ! EMO, EFA - NODE CONSTITUENT PROPERTIES
0.010560 315.601   ! EMO, EFA - NODE CONSTITUENT PROPERTIES
0.009467 323.226   ! EMO, EFA - NODE CONSTITUENT PROPERTIES
0.010168 325.449   ! EMO, EFA - NODE CONSTITUENT PROPERTIES
0.010192 325.357   ! EMO, EFA - NODE CONSTITUENT PROPERTIES
0.009844 323.712   ! EMO, EFA - NODE CONSTITUENT PROPERTIES
0.009164 320.411   ! EMO, EFA - NODE CONSTITUENT PROPERTIES
0.008179 314.691   ! EMO, EFA - NODE CONSTITUENT PROPERTIES
0.006943 305.232   ! EMO, EFA - NODE CONSTITUENT PROPERTIES
0.005819 289.619   ! EMO, EFA - NODE CONSTITUENT PROPERTIES
0.005299 268.186   ! EMO, EFA - NODE CONSTITUENT PROPERTIES
0.005666 243.815   ! EMO, EFA - NODE CONSTITUENT PROPERTIES
0.006937 224.433   ! EMO, EFA - NODE CONSTITUENT PROPERTIES
0.008815 212.125   ! EMO, EFA - NODE CONSTITUENT PROPERTIES
0.010721 205.132   ! EMO, EFA - NODE CONSTITUENT PROPERTIES
0.012973 199.969   ! EMO, EFA - NODE CONSTITUENT PROPERTIES
0.015605 196.217   ! EMO, EFA - NODE CONSTITUENT PROPERTIES
0.018200 193.508   ! EMO, EFA - NODE CONSTITUENT PROPERTIES
0.021109 191.476   ! EMO, EFA - NODE CONSTITUENT PROPERTIES
0.024226 190.237   ! EMO, EFA - NODE CONSTITUENT PROPERTIES
0.023857 189.686   ! EMO, EFA - NODE CONSTITUENT PROPERTIES
0.022370 188.945   ! EMO, EFA - NODE CONSTITUENT PROPERTIES
0.022147 188.567   ! EMO, EFA - NODE CONSTITUENT PROPERTIES
0.023042 188.987   ! EMO, EFA - NODE CONSTITUENT PROPERTIES
0.024438 189.776   ! EMO, EFA - NODE CONSTITUENT PROPERTIES
0.025387 190.655   ! EMO, EFA - NODE CONSTITUENT PROPERTIES
N2                                       ! ALPHA - NAME OF TIDAL FORCING CONSTITUENT
0.138679 335.369   ! EMO, EFA - NODE CONSTITUENT PROPERTIES
0.127496 334.304   ! EMO, EFA - NODE CONSTITUENT PROPERTIES
0.123354 333.632   ! EMO, EFA - NODE CONSTITUENT PROPERTIES
0.119664 332.948   ! EMO, EFA - NODE CONSTITUENT PROPERTIES
0.114018 333.213   ! EMO, EFA - NODE CONSTITUENT PROPERTIES
0.111891 333.255   ! EMO, EFA - NODE CONSTITUENT PROPERTIES
0.109454 333.282   ! EMO, EFA - NODE CONSTITUENT PROPERTIES
0.107103 333.478   ! EMO, EFA - NODE CONSTITUENT PROPERTIES
0.105480 333.932   ! EMO, EFA - NODE CONSTITUENT PROPERTIES
0.105013 334.273   ! EMO, EFA - NODE CONSTITUENT PROPERTIES
0.103673 334.937   ! EMO, EFA - NODE CONSTITUENT PROPERTIES
0.101755 335.911   ! EMO, EFA - NODE CONSTITUENT PROPERTIES
0.100458 336.536   ! EMO, EFA - NODE CONSTITUENT PROPERTIES
0.099840 336.798   ! EMO, EFA - NODE CONSTITUENT PROPERTIES
0.100645 336.567   ! EMO, EFA - NODE CONSTITUENT PROPERTIES
0.101071 335.884   ! EMO, EFA - NODE CONSTITUENT PROPERTIES
0.099262 333.879   ! EMO, EFA - NODE CONSTITUENT PROPERTIES
0.095618 330.490   ! EMO, EFA - NODE CONSTITUENT PROPERTIES
0.089710 329.037   ! EMO, EFA - NODE CONSTITUENT PROPERTIES
0.087329 331.475   ! EMO, EFA - NODE CONSTITUENT PROPERTIES
0.089334 328.977   ! EMO, EFA - NODE CONSTITUENT PROPERTIES
0.088025 328.852   ! EMO, EFA - NODE CONSTITUENT PROPERTIES
0.080334 331.274   ! EMO, EFA - NODE CONSTITUENT PROPERTIES
0.087269 328.770   ! EMO, EFA - NODE CONSTITUENT PROPERTIES
0.085415 328.604   ! EMO, EFA - NODE CONSTITUENT PROPERTIES
0.082589 328.434   ! EMO, EFA - NODE CONSTITUENT PROPERTIES
0.079055 328.456   ! EMO, EFA - NODE CONSTITUENT PROPERTIES
0.071845 329.308   ! EMO, EFA - NODE CONSTITUENT PROPERTIES
0.063317 332.580   ! EMO, EFA - NODE CONSTITUENT PROPERTIES
0.056976 338.521   ! EMO, EFA - NODE CONSTITUENT PROPERTIES
0.060500 341.527   ! EMO, EFA - NODE CONSTITUENT PROPERTIES
0.060592 341.989   ! EMO, EFA - NODE CONSTITUENT PROPERTIES
0.058671 340.801   ! EMO, EFA - NODE CONSTITUENT PROPERTIES