created on 2024-09-05 14:55                                     ! RUNDES        
eastcoast_95d_ll_select.grd                                     ! RUNID         
1                                                               ! NFOVER        
1                                                               ! NABOUT        
100                                                             ! NSCREEN       
0                                                               ! IHOT          
2                                                               ! ICS           
511113                                                          ! IM            
1                                                               ! NOLIBF        
2                                                               ! NOLIFA        
1                                                               ! NOLICA        
1                                                               ! NOLICAT       
2                                                               ! NWP           
primitive_weighting_in_continuity_equation                                      
mannings_n_at_sea_floor                                                         
1                                                               ! NCOR          
1                                                               ! NTIP          
0                                                               ! NWS           
1                                                               ! NRAMP         
9.81                                                            ! G             
-3                                                              ! TAU0          
80.142686                                                       ! DTDP          
0                                                               ! STATIM        
0                                                               ! REFTIM        
8                                                              ! RNDAY          
15                                                              ! DRAMP         
0.5 0.5 0                                                       ! A00 B00 C00   
0.01 0 0 0.01                                                   ! H0 NODEDRYMIN 
-76.725105 26.58329                                             ! SLAM0 SFEA0   
0.0025                                                          ! FFACTOR       
-0.2                                                            ! smagorinsky co
0                                                               ! CORI          
8                                                               ! NTIF          
Q1                                                                              
0.019256 6.49585E-05 0.695 1.03332 190.975                                      
O1                                                                              
0.100514 6.75977E-05 0.695 1.03332 219.176                                      
P1                                                                              
0.046843 7.25229E-05 0.706 1 53.1342                                            
K1                                                                              
0.141565 7.29212E-05 0.736 1.02074 118.15                                       
N2                                                                              
0.046398 0.00013788 0.693 0.998141 305.241                                      
M2                                                                              
0.242334 0.000140519 0.693 0.998141 333.443                                     
S2                                                                              
0.112841 0.000145444 0.693 1 180                                                
K2                                                                              
0.030704 0.000145842 0.693 1.03171 56.0484                                      
8                                                                               
Q1                                                                              
6.49585E-05 1.03332 190.975                                                     
O1                                                                              
6.75977E-05 1.03332 219.176                                                     
P1                                                                              
7.25229E-05 1 53.1342                                                           
K1                                                                              
7.29212E-05 1.02074 118.15                                                      
N2                                                                              
0.00013788 0.998141 305.241                                                     
M2                                                                              
0.000140519 0.998141 333.443                                                    
S2                                                                              
0.000145444 1 180                                                               
K2                                                                              
0.000145842 1.03171 56.0484                                                     
Q1                                                                              
1.46000004e-02 2.19089996e+02                                                   
1.46644307e-02 2.19408683e+02                                                   
1.46324076e-02 2.19344065e+02                                                   
1.46327916e-02 2.19712378e+02                                                   
1.44834973e-02 2.19168400e+02                                                   
1.43165687e-02 2.18965330e+02                                                   
1.42331035e-02 2.19043688e+02                                                   
1.40992813e-02 2.18333621e+02                                                   
1.38827119e-02 2.17375181e+02                                                   
1.37810704e-02 2.17125046e+02                                                   
1.36350969e-02 2.13859246e+02                                                   
1.36430689e-02 2.10346066e+02                                                   
1.36001049e-02 2.10066736e+02                                                   
1.35000002e-02 2.10157279e+02                                                   
1.33864515e-02 2.09472773e+02                                                   
1.33000004e-02 2.08440339e+02                                                   
1.32727981e-02 2.07192118e+02                                                   
1.31649033e-02 2.05245024e+02                                                   
1.30865426e-02 2.04392538e+02                                                   
1.28999996e-02 2.04612115e+02                                                   
1.27413390e-02 2.04453789e+02                                                   
1.26999998e-02 2.03560761e+02                                                   
O1                                                                              
7.98000002e-02 2.30789993e+02                                                   
8.00593567e-02 2.30983455e+02                                                   
7.97191719e-02 2.30836531e+02                                                   
7.86681253e-02 2.30499626e+02                                                   
7.76176539e-02 2.29473165e+02                                                   
7.65835229e-02 2.28582387e+02                                                   
7.61330245e-02 2.28209637e+02                                                   
7.58168124e-02 2.28103362e+02                                                   
7.52481377e-02 2.27945569e+02                                                   
7.47126351e-02 2.27800826e+02                                                   
7.42763722e-02 2.27876719e+02                                                   
7.38920285e-02 2.27972539e+02                                                   
7.32006305e-02 2.27979529e+02                                                   
7.26298337e-02 2.27941639e+02                                                   
7.20242567e-02 2.27917288e+02                                                   
7.15537760e-02 2.27886473e+02                                                   
7.11104982e-02 2.27864558e+02                                                   
7.04889517e-02 2.27861675e+02                                                   
6.99894364e-02 2.27683709e+02                                                   
6.93927845e-02 2.27101055e+02                                                   
6.89475811e-02 2.26652108e+02                                                   
6.86336398e-02 2.26179689e+02                                                   
P1                                                                              
3.76999998e-02 2.40619995e+02                                                   
3.77982805e-02 2.41156914e+02                                                   
3.75844655e-02 2.39719699e+02                                                   
3.70840636e-02 2.38718236e+02                                                   
3.65339877e-02 2.37962578e+02                                                   
3.58492832e-02 2.36845177e+02                                                   
3.54655196e-02 2.36138008e+02                                                   
3.50482040e-02 2.35408411e+02                                                   
3.42308487e-02 2.34161805e+02                                                   
3.36473489e-02 2.33510956e+02                                                   
3.32763713e-02 2.33362173e+02                                                   
3.29489588e-02 2.33277672e+02                                                   
3.26353063e-02 2.33224932e+02                                                   
3.23783745e-02 2.33202737e+02                                                   
3.21079996e-02 2.33187590e+02                                                   
3.18647214e-02 2.33151888e+02                                                   
3.16727984e-02 2.33105084e+02                                                   
3.11942405e-02 2.32927363e+02                                                   
3.08216392e-02 2.32725198e+02                                                   
3.04490372e-02 2.32507111e+02                                                   
3.00764359e-02 2.32289035e+02                                                   
2.96725723e-02 2.32087828e+02                                                   
K1                                                                              
1.00799999e-01 2.41330002e+02                                                   
1.01445120e-01 2.41539562e+02                                                   
1.01048319e-01 2.41389717e+02                                                   
1.00203390e-01 2.40876899e+02                                                   
9.80357771e-02 2.40067677e+02                                                   
9.59328055e-02 2.39296026e+02                                                   
9.50647935e-02 2.38953197e+02                                                   
9.43310718e-02 2.38848762e+02                                                   
9.30273668e-02 2.38604575e+02                                                   
9.17177636e-02 2.38295783e+02                                                   
9.12305187e-02 2.38221855e+02                                                   
9.05250464e-02 2.38088582e+02                                                   
9.00055001e-02 2.38009497e+02                                                   
8.95351242e-02 2.37941104e+02                                                   
8.90646417e-02 2.37851338e+02                                                   
8.86645398e-02 2.37743715e+02                                                   
8.83236822e-02 2.37621216e+02                                                   
8.75178226e-02 2.37285737e+02                                                   
8.67000155e-02 2.36977598e+02                                                   
8.56961521e-02 2.36728849e+02                                                   
8.47644050e-02 2.36384273e+02                                                   
8.37802411e-02 2.35994020e+02                                                   
N2                                                                              
1.12600002e-01 2.06589996e+02                                                   
1.13646422e-01 2.07041553e+02                                                   
1.11652332e-01 2.06266423e+02                                                   
1.08358971e-01 2.05872997e+02                                                   
1.03072877e-01 2.04921504e+02                                                   
9.52389074e-02 2.03504988e+02                                                   
9.02653709e-02 2.02510942e+02                                                   
8.72013475e-02 2.02150835e+02                                                   
8.06640710e-02 2.01243534e+02                                                   
7.61287425e-02 2.00695245e+02                                                   
7.29850387e-02 2.00542348e+02                                                   
7.14283245e-02 2.00473325e+02                                                   
6.94611853e-02 2.00401279e+02                                                   
6.75356650e-02 2.00377693e+02                                                   
6.59132860e-02 2.00460405e+02                                                   
6.38041563e-02 2.00465810e+02                                                   
6.16383928e-02 2.00502875e+02                                                   
5.75938676e-02 2.00786718e+02                                                   
5.45981145e-02 2.01172972e+02                                                   
5.21797894e-02 2.01710871e+02                                                   
4.93854881e-02 2.02296650e+02                                                   
4.65133488e-02 2.02893484e+02                                                   
M2                                                                              
5.04700012e-01 2.22149994e+02                                                   
5.11190784e-01 2.22581354e+02                                                   
5.07513401e-01 2.22323996e+02                                                   
4.94491017e-01 2.22084172e+02                                                   
4.67182343e-01 2.21136454e+02                                                   
4.29939027e-01 2.19884059e+02                                                   
4.07723444e-01 2.19059809e+02                                                   
3.93801471e-01 2.18640328e+02                                                   
3.65999195e-01 2.17800497e+02                                                   
3.47229387e-01 2.17491015e+02                                                   
3.37329920e-01 2.17351125e+02                                                   
3.27464753e-01 2.17342676e+02                                                   
3.18200051e-01 2.17224333e+02                                                   
3.09067317e-01 2.17183364e+02                                                   
2.99360488e-01 2.17271225e+02                                                   
2.89361344e-01 2.17293412e+02                                                   
2.78973651e-01 2.17418145e+02                                                   
2.60161620e-01 2.17874014e+02                                                   
2.45663663e-01 2.18303839e+02                                                   
2.32373932e-01 2.18612208e+02                                                   
2.18134688e-01 2.19052661e+02                                                   
2.02592574e-01 2.19323469e+02                                                   
S2                                                                              
1.72900009e-01 2.43779999e+02                                                   
1.74825228e-01 2.44332761e+02                                                   
1.71631138e-01 2.43841057e+02                                                   
1.66347342e-01 2.43721275e+02                                                   
1.57527289e-01 2.42444926e+02                                                   
1.44298356e-01 2.40530865e+02                                                   
1.35932274e-01 2.39140614e+02                                                   
1.30820864e-01 2.38851362e+02                                                   
1.19886722e-01 2.37687192e+02                                                   
1.12412070e-01 2.36391647e+02                                                   
1.07343958e-01 2.36365227e+02                                                   
1.04712980e-01 2.35900918e+02                                                   
1.01491934e-01 2.35659248e+02                                                   
9.82766006e-02 2.35557166e+02                                                   
9.55780558e-02 2.35478506e+02                                                   
9.22358534e-02 2.35622917e+02                                                   
8.87803833e-02 2.35775503e+02                                                   
8.25973018e-02 2.36264165e+02                                                   
7.81038991e-02 2.36755665e+02                                                   
7.46302631e-02 2.37293846e+02                                                   
7.05219929e-02 2.37881982e+02                                                   
6.63532019e-02 2.38347508e+02                                                   
K2                                                                              
4.73999977e-02 2.45910004e+02                                                   
4.79864131e-02 2.46560144e+02                                                   
4.71473591e-02 2.45866585e+02                                                   
4.57858301e-02 2.45694804e+02                                                   
4.33361184e-02 2.44486567e+02                                                   
3.95952812e-02 2.42545502e+02                                                   
3.72008555e-02 2.41103666e+02                                                   
3.58362536e-02 2.40745862e+02                                                   
3.27093374e-02 2.39474791e+02                                                   
3.03969044e-02 2.38184894e+02                                                   
2.90451649e-02 2.38106689e+02                                                   
2.82628209e-02 2.37652310e+02                                                   
2.73655321e-02 2.37461129e+02                                                   
2.64812922e-02 2.37415281e+02                                                   
2.57269649e-02 2.37444223e+02                                                   
2.48075506e-02 2.37621610e+02                                                   
2.39314956e-02 2.37820948e+02                                                   
2.22553370e-02 2.38374741e+02                                                   
2.10543382e-02 2.38923206e+02                                                   
2.01365319e-02 2.39524566e+02                                                   
1.90365022e-02 2.40151361e+02                                                   
1.79711156e-02 2.40762669e+02                                                   
110                                                             ! ANGINN        
           0   0.0000000000000000        0.0000000000000000                0
       0                                                                ! NSTAE 
           0   0.0000000000000000        0.0000000000000000                0
       0                                                                ! NSTAV 
          -3   0.0000000000000000        15.000000000000000               20
          -3   0.0000000000000000        15.000000000000000               20
0                                                               ! NFREQ         
0 0 0 0                                                         ! THAS THAF NHAI
0 0 0 0                                                         ! NHASE NHASV NH
5 16171                                                         ! NHSTAR NHSINC 
1 0 1E-08 25                                                    ! ITITER ISLDIA 
 ! NCPROJ
 ! NCINST
 ! NCSOUR
 ! NCHIST
 ! NCREF
 ! NCCOM
 ! NCHOST
 ! NCONV
 ! NCCONT
 2020-07-13 18:00                                                ! NCDATE
 ! -- Begin Met Control Namelist --
 &metControl 
     WindDragLimit=   2.5000000000000001E-003 ,
     DragLawString='default',
     outputWindDrag= F ,
     rhoAir=   1.2929999999999999      ,
     invertedBarometerOnElevationBoundary= F ,
     nPowellSearchDomains=          -1
 /
 ! -- End Met Control Namelist --
