created on 2024-09-03 21:16                                     ! RUNDES        
eastcoast_95d_ll_select.grd                                     ! RUNID         
1                                                               ! NFOVER        
1                                                               ! NABOUT        
100                                                             ! NSCREEN       
0                                                               ! IHOT          
2                                                               ! ICS           
511113                                                          ! IM            
1                                                               ! NOLIBF        
2                                                               ! NOLIFA        
1                                                               ! NOLICA        
1                                                               ! NOLICAT       
2                                                               ! NWP           
primitive_weighting_in_continuity_equation                                      
mannings_n_at_sea_floor                                                         
1                                                               ! NCOR          
1                                                               ! NTIP          
8                                                               ! NWS           
1                                                               ! NRAMP         
9.81                                                            ! G             
-3                                                              ! TAU0          
80.142686                                                       ! DTDP          
0                                                               ! STATIM        
0                                                               ! REFTIM        
2016 09 28 18 1 0.7 1                                           ! IREFYR IREFMO 
11                                                              ! RNDAY         
15                                                              ! DRAMP         
0.5 0.5 0                                                       ! A00 B00 C00   
0.01 0 0 0.01                                                   ! H0 NODEDRYMIN 
-76.725105 26.58329                                             ! SLAM0 SFEA0   
0.0025                                                          ! FFACTOR       
-0.2                                                            ! smagorinsky co
0                                                               ! CORI          
8                                                               ! NTIF          
Q1                                                                              
0.019256 6.49585E-05 0.695 0.820194 311.931                                     
O1                                                                              
0.100514 6.75977E-05 0.695 0.820194 61.9297                                     
P1                                                                              
0.046843 7.25229E-05 0.706 1 352.055                                            
K1                                                                              
0.141565 7.29212E-05 0.736 0.890227 184.553                                     
N2                                                                              
0.046398 0.00013788 0.693 1.03569 134.612                                       
M2                                                                              
0.242334 0.000140519 0.693 1.03569 244.61                                       
S2                                                                              
0.112841 0.000145444 0.693 1 180                                                
K2                                                                              
0.030704 0.000145842 0.693 0.760365 189.728                                     
8                                                                               
Q1                                                                              
6.49585E-05 0.820194 311.931                                                    
O1                                                                              
6.75977E-05 0.820194 61.9297                                                    
P1                                                                              
7.25229E-05 1 352.055                                                           
K1                                                                              
7.29212E-05 0.890227 184.553                                                    
N2                                                                              
0.00013788 1.03569 134.612                                                      
M2                                                                              
0.000140519 1.03569 244.61                                                      
S2                                                                              
0.000145444 1 180                                                               
K2                                                                              
0.000145842 0.760365 189.728                                                    
Q1                                                                              
1.46000004e-02 2.19089996e+02                                                   
1.46644307e-02 2.19408683e+02                                                   
1.46324076e-02 2.19344065e+02                                                   
1.46327916e-02 2.19712378e+02                                                   
1.44834973e-02 2.19168400e+02                                                   
1.43165687e-02 2.18965330e+02                                                   
1.42331035e-02 2.19043688e+02                                                   
1.40992813e-02 2.18333621e+02                                                   
1.38827119e-02 2.17375181e+02                                                   
1.37810704e-02 2.17125046e+02                                                   
1.36350969e-02 2.13859246e+02                                                   
1.36430689e-02 2.10346066e+02                                                   
1.36001049e-02 2.10066736e+02                                                   
1.35000002e-02 2.10157279e+02                                                   
1.33864515e-02 2.09472773e+02                                                   
1.33000004e-02 2.08440339e+02                                                   
1.32727981e-02 2.07192118e+02                                                   
1.31649033e-02 2.05245024e+02                                                   
1.30865426e-02 2.04392538e+02                                                   
1.28999996e-02 2.04612115e+02                                                   
1.27413390e-02 2.04453789e+02                                                   
1.26999998e-02 2.03560761e+02                                                   
1.26999998e-02 2.02098554e+02                                                   
1.25131760e-02 2.01684051e+02                                                   
1.24000001e-02 2.01231819e+02                                                   
1.23000002e-02 2.00617331e+02                                                   
1.22710938e-02 1.99856043e+02                                                   
1.22669066e-02 1.98839056e+02                                                   
1.20972804e-02 1.98602611e+02                                                   
1.19668717e-02 1.98215651e+02                                                   
1.18903565e-02 1.97733185e+02                                                   
1.17999995e-02 1.97197878e+02                                                   
1.16999996e-02 1.96610214e+02                                                   
1.16999996e-02 1.95977847e+02                                                   
1.15999997e-02 1.95294213e+02                                                   
1.15999997e-02 1.94566909e+02                                                   
1.15999997e-02 1.93747039e+02                                                   
1.15940997e-02 1.92823354e+02                                                   
1.13999999e-02 1.91961481e+02                                                   
1.13000000e-02 1.90664974e+02                                                   
1.12000000e-02 1.89380020e+02                                                   
1.11000001e-02 1.87925082e+02                                                   
O1                                                                              
7.98000002e-02 2.30789993e+02                                                   
8.00593567e-02 2.30983455e+02                                                   
7.97191719e-02 2.30836531e+02                                                   
7.86681253e-02 2.30499626e+02                                                   
7.76176539e-02 2.29473165e+02                                                   
7.65835229e-02 2.28582387e+02                                                   
7.61330245e-02 2.28209637e+02                                                   
7.58168124e-02 2.28103362e+02                                                   
7.52481377e-02 2.27945569e+02                                                   
7.47126351e-02 2.27800826e+02                                                   
7.42763722e-02 2.27876719e+02                                                   
7.38920285e-02 2.27972539e+02                                                   
7.32006305e-02 2.27979529e+02                                                   
7.26298337e-02 2.27941639e+02                                                   
7.20242567e-02 2.27917288e+02                                                   
7.15537760e-02 2.27886473e+02                                                   
7.11104982e-02 2.27864558e+02                                                   
7.04889517e-02 2.27861675e+02                                                   
6.99894364e-02 2.27683709e+02                                                   
6.93927845e-02 2.27101055e+02                                                   
6.89475811e-02 2.26652108e+02                                                   
6.86336398e-02 2.26179689e+02                                                   
6.84797367e-02 2.25669486e+02                                                   
6.76658819e-02 2.25446034e+02                                                   
6.69707885e-02 2.25217290e+02                                                   
6.64152298e-02 2.24948206e+02                                                   
6.59083407e-02 2.24628726e+02                                                   
6.55507254e-02 2.24342346e+02                                                   
6.47945602e-02 2.23888141e+02                                                   
6.41646334e-02 2.23409979e+02                                                   
6.36138421e-02 2.22907394e+02                                                   
6.31068834e-02 2.22397125e+02                                                   
6.25999239e-02 2.21876852e+02                                                   
6.21630476e-02 2.21373268e+02                                                   
6.17096029e-02 2.20888757e+02                                                   
6.13561569e-02 2.20439319e+02                                                   
6.11027109e-02 2.20054024e+02                                                   
6.02764018e-02 2.19257609e+02                                                   
5.89853083e-02 2.18201559e+02                                                   
5.77259830e-02 2.16942372e+02                                                   
5.67791623e-02 2.15838584e+02                                                   
5.59492723e-02 2.14964686e+02                                                   
P1                                                                              
3.76999998e-02 2.40619995e+02                                                   
3.77982805e-02 2.41156914e+02                                                   
3.75844655e-02 2.39719699e+02                                                   
3.70840636e-02 2.38718236e+02                                                   
3.65339877e-02 2.37962578e+02                                                   
3.58492832e-02 2.36845177e+02                                                   
3.54655196e-02 2.36138008e+02                                                   
3.50482040e-02 2.35408411e+02                                                   
3.42308487e-02 2.34161805e+02                                                   
3.36473489e-02 2.33510956e+02                                                   
3.32763713e-02 2.33362173e+02                                                   
3.29489588e-02 2.33277672e+02                                                   
3.26353063e-02 2.33224932e+02                                                   
3.23783745e-02 2.33202737e+02                                                   
3.21079996e-02 2.33187590e+02                                                   
3.18647214e-02 2.33151888e+02                                                   
3.16727984e-02 2.33105084e+02                                                   
3.11942405e-02 2.32927363e+02                                                   
3.08216392e-02 2.32725198e+02                                                   
3.04490372e-02 2.32507111e+02                                                   
3.00764359e-02 2.32289035e+02                                                   
2.96725723e-02 2.32087828e+02                                                   
2.93165015e-02 2.31859409e+02                                                   
2.89472546e-02 2.31536133e+02                                                   
2.85189622e-02 2.31151744e+02                                                   
2.81906721e-02 2.30761420e+02                                                   
2.78372453e-02 2.30330546e+02                                                   
2.74838184e-02 2.29898073e+02                                                   
2.71972803e-02 2.29441319e+02                                                   
2.68769646e-02 2.28932181e+02                                                   
2.65234865e-02 2.28368910e+02                                                   
2.62700061e-02 2.27804623e+02                                                   
2.59165263e-02 2.27246963e+02                                                   
2.56630482e-02 2.26679311e+02                                                   
2.53764828e-02 2.26089415e+02                                                   
2.50561559e-02 2.25488838e+02                                                   
2.48027098e-02 2.24877289e+02                                                   
2.43882006e-02 2.23935476e+02                                                   
2.39061282e-02 2.22850173e+02                                                   
2.32629897e-02 2.21391037e+02                                                   
2.27561302e-02 2.19974704e+02                                                   
2.23492721e-02 2.18516987e+02                                                   
K1                                                                              
1.00799999e-01 2.41330002e+02                                                   
1.01445120e-01 2.41539562e+02                                                   
1.01048319e-01 2.41389717e+02                                                   
1.00203390e-01 2.40876899e+02                                                   
9.80357771e-02 2.40067677e+02                                                   
9.59328055e-02 2.39296026e+02                                                   
9.50647935e-02 2.38953197e+02                                                   
9.43310718e-02 2.38848762e+02                                                   
9.30273668e-02 2.38604575e+02                                                   
9.17177636e-02 2.38295783e+02                                                   
9.12305187e-02 2.38221855e+02                                                   
9.05250464e-02 2.38088582e+02                                                   
9.00055001e-02 2.38009497e+02                                                   
8.95351242e-02 2.37941104e+02                                                   
8.90646417e-02 2.37851338e+02                                                   
8.86645398e-02 2.37743715e+02                                                   
8.83236822e-02 2.37621216e+02                                                   
8.75178226e-02 2.37285737e+02                                                   
8.67000155e-02 2.36977598e+02                                                   
8.56961521e-02 2.36728849e+02                                                   
8.47644050e-02 2.36384273e+02                                                   
8.37802411e-02 2.35994020e+02                                                   
8.28920466e-02 2.35563094e+02                                                   
8.18681129e-02 2.35273400e+02                                                   
8.08422832e-02 2.34935239e+02                                                   
7.98203044e-02 2.34536080e+02                                                   
7.87159068e-02 2.34042061e+02                                                   
7.76021807e-02 2.33493283e+02                                                   
7.65884537e-02 2.32859280e+02                                                   
7.55416003e-02 2.32098979e+02                                                   
7.44608125e-02 2.31023631e+02                                                   
7.36100204e-02 2.30498196e+02                                                   
7.26495827e-02 2.30060161e+02                                                   
7.17891462e-02 2.29447848e+02                                                   
7.09052911e-02 2.28758550e+02                                                   
7.00684669e-02 2.28036983e+02                                                   
6.92081295e-02 2.27275954e+02                                                   
6.79815381e-02 2.26114659e+02                                                   
6.67183822e-02 2.24741312e+02                                                   
6.53921116e-02 2.22908363e+02                                                   
6.46482577e-02 2.21198088e+02                                                   
6.22639554e-02 2.19108115e+02                                                   
N2                                                                              
1.12600002e-01 2.06589996e+02                                                   
1.13646422e-01 2.07041553e+02                                                   
1.11652332e-01 2.06266423e+02                                                   
1.08358971e-01 2.05872997e+02                                                   
1.03072877e-01 2.04921504e+02                                                   
9.52389074e-02 2.03504988e+02                                                   
9.02653709e-02 2.02510942e+02                                                   
8.72013475e-02 2.02150835e+02                                                   
8.06640710e-02 2.01243534e+02                                                   
7.61287425e-02 2.00695245e+02                                                   
7.29850387e-02 2.00542348e+02                                                   
7.14283245e-02 2.00473325e+02                                                   
6.94611853e-02 2.00401279e+02                                                   
6.75356650e-02 2.00377693e+02                                                   
6.59132860e-02 2.00460405e+02                                                   
6.38041563e-02 2.00465810e+02                                                   
6.16383928e-02 2.00502875e+02                                                   
5.75938676e-02 2.00786718e+02                                                   
5.45981145e-02 2.01172972e+02                                                   
5.21797894e-02 2.01710871e+02                                                   
4.93854881e-02 2.02296650e+02                                                   
4.65133488e-02 2.02893484e+02                                                   
4.45058060e-02 2.03476188e+02                                                   
4.20427024e-02 2.04296377e+02                                                   
3.96342848e-02 2.05277139e+02                                                   
3.77286814e-02 2.06469706e+02                                                   
3.57010521e-02 2.07899897e+02                                                   
3.36065178e-02 2.09562190e+02                                                   
3.14789073e-02 2.11355733e+02                                                   
2.93951310e-02 2.13501878e+02                                                   
2.71710419e-02 2.16221101e+02                                                   
2.48624865e-02 2.19600033e+02                                                   
2.27015118e-02 2.23643900e+02                                                   
2.07437576e-02 2.28581063e+02                                                   
1.89697859e-02 2.34604618e+02                                                   
1.75396592e-02 2.41727137e+02                                                   
1.64433798e-02 2.50231563e+02                                                   
1.56676834e-02 2.62688629e+02                                                   
1.59546723e-02 2.75719251e+02                                                   
1.74472353e-02 2.91124692e+02                                                   
1.98179386e-02 3.03241751e+02                                                   
2.24855640e-02 3.11495309e+02                                                   
M2                                                                              
5.04700012e-01 2.22149994e+02                                                   
5.11190784e-01 2.22581354e+02                                                   
5.07513401e-01 2.22323996e+02                                                   
4.94491017e-01 2.22084172e+02                                                   
4.67182343e-01 2.21136454e+02                                                   
4.29939027e-01 2.19884059e+02                                                   
4.07723444e-01 2.19059809e+02                                                   
3.93801471e-01 2.18640328e+02                                                   
3.65999195e-01 2.17800497e+02                                                   
3.47229387e-01 2.17491015e+02                                                   
3.37329920e-01 2.17351125e+02                                                   
3.27464753e-01 2.17342676e+02                                                   
3.18200051e-01 2.17224333e+02                                                   
3.09067317e-01 2.17183364e+02                                                   
2.99360488e-01 2.17271225e+02                                                   
2.89361344e-01 2.17293412e+02                                                   
2.78973651e-01 2.17418145e+02                                                   
2.60161620e-01 2.17874014e+02                                                   
2.45663663e-01 2.18303839e+02                                                   
2.32373932e-01 2.18612208e+02                                                   
2.18134688e-01 2.19052661e+02                                                   
2.02592574e-01 2.19323469e+02                                                   
1.90669262e-01 2.19470668e+02                                                   
1.79865101e-01 2.19856590e+02                                                   
1.69924074e-01 2.20341132e+02                                                   
1.61245878e-01 2.21243750e+02                                                   
1.51298466e-01 2.22329275e+02                                                   
1.41268558e-01 2.23666656e+02                                                   
1.31301972e-01 2.25372761e+02                                                   
1.21613869e-01 2.27582341e+02                                                   
1.11795031e-01 2.30476186e+02                                                   
1.01646174e-01 2.33609965e+02                                                   
9.15739017e-02 2.37492732e+02                                                   
8.21487040e-02 2.42584565e+02                                                   
7.38333968e-02 2.49016077e+02                                                   
6.69924240e-02 2.56877322e+02                                                   
6.20803766e-02 2.66237201e+02                                                   
5.88714947e-02 2.81961904e+02                                                   
6.14134394e-02 2.99343650e+02                                                   
7.13487395e-02 3.16995390e+02                                                   
8.45076313e-02 3.28246649e+02                                                   
1.00164715e-01 3.35840770e+02                                                   
S2                                                                              
1.72900009e-01 2.43779999e+02                                                   
1.74825228e-01 2.44332761e+02                                                   
1.71631138e-01 2.43841057e+02                                                   
1.66347342e-01 2.43721275e+02                                                   
1.57527289e-01 2.42444926e+02                                                   
1.44298356e-01 2.40530865e+02                                                   
1.35932274e-01 2.39140614e+02                                                   
1.30820864e-01 2.38851362e+02                                                   
1.19886722e-01 2.37687192e+02                                                   
1.12412070e-01 2.36391647e+02                                                   
1.07343958e-01 2.36365227e+02                                                   
1.04712980e-01 2.35900918e+02                                                   
1.01491934e-01 2.35659248e+02                                                   
9.82766006e-02 2.35557166e+02                                                   
9.55780558e-02 2.35478506e+02                                                   
9.22358534e-02 2.35622917e+02                                                   
8.87803833e-02 2.35775503e+02                                                   
8.25973018e-02 2.36264165e+02                                                   
7.81038991e-02 2.36755665e+02                                                   
7.46302631e-02 2.37293846e+02                                                   
7.05219929e-02 2.37881982e+02                                                   
6.63532019e-02 2.38347508e+02                                                   
6.34595033e-02 2.38580814e+02                                                   
5.99404271e-02 2.38873599e+02                                                   
5.66897664e-02 2.39176969e+02                                                   
5.40354075e-02 2.39682208e+02                                                   
5.12763156e-02 2.40422864e+02                                                   
4.85910546e-02 2.41344864e+02                                                   
4.56349146e-02 2.42468116e+02                                                   
4.28496727e-02 2.43808997e+02                                                   
3.98421111e-02 2.45363009e+02                                                   
3.65768609e-02 2.47295147e+02                                                   
3.35185690e-02 2.49667215e+02                                                   
3.05971609e-02 2.52593490e+02                                                   
2.77425998e-02 2.56176401e+02                                                   
2.51987510e-02 2.60492152e+02                                                   
2.29252724e-02 2.65588616e+02                                                   
2.01330455e-02 2.75727181e+02                                                   
1.82145921e-02 2.90404066e+02                                                   
1.77047470e-02 3.10952593e+02                                                   
1.91186428e-02 3.29417602e+02                                                   
2.16861688e-02 3.41926142e+02                                                   
K2                                                                              
4.73999977e-02 2.45910004e+02                                                   