created on 2024-09-03 21:16                                     ! RUNDES        
eastcoast_95d_ll_select.grd                                     ! RUNID         
1                                                               ! NFOVER        
1                                                               ! NABOUT        
100                                                             ! NSCREEN       
0                                                               ! IHOT          
2                                                               ! ICS           
511113                                                          ! IM            
1                                                               ! NOLIBF        
2                                                               ! NOLIFA        
1                                                               ! NOLICA        
1                                                               ! NOLICAT       
2                                                               ! NWP           
primitive_weighting_in_continuity_equation                                      
mannings_n_at_sea_floor                                                         
1                                                               ! NCOR          
1                                                               ! NTIP          
8                                                               ! NWS           
1                                                               ! NRAMP         
9.81                                                            ! G             
-3                                                              ! TAU0          
80.142686                                                       ! DTDP          
0                                                               ! STATIM        
0                                                               ! REFTIM        
2016 09 28 18 1 0.7 1                                           ! IREFYR IREFMO 
11                                                              ! RNDAY         
15                                                              ! DRAMP         
0.5 0.5 0                                                       ! A00 B00 C00   
0.01 0 0 0.01                                                   ! H0 NODEDRYMIN 
-76.725105 26.58329                                             ! SLAM0 SFEA0   
0.0025                                                          ! FFACTOR       
-0.2                                                            ! smagorinsky co
0                                                               ! CORI          
8                                                               ! NTIF          
Q1                                                                              
0.019256 6.49585E-05 0.695 0.820194 311.931                                     
O1                                                                              
0.100514 6.75977E-05 0.695 0.820194 61.9297                                     
P1                                                                              
0.046843 7.25229E-05 0.706 1 352.055                                            
K1                                                                              
0.141565 7.29212E-05 0.736 0.890227 184.553                                     
N2                                                                              
0.046398 0.00013788 0.693 1.03569 134.612                                       
M2                                                                              
0.242334 0.000140519 0.693 1.03569 244.61                                       
S2                                                                              
0.112841 0.000145444 0.693 1 180                                                
K2                                                                              
0.030704 0.000145842 0.693 0.760365 189.728                                     
8                                                                               
Q1                                                                              
6.49585E-05 0.820194 311.931                                                    
O1                                                                              
6.75977E-05 0.820194 61.9297                                                    
P1                                                                              
7.25229E-05 1 352.055                                                           
K1                                                                              
7.29212E-05 0.890227 184.553                                                    
N2                                                                              
0.00013788 1.03569 134.612                                                      
M2                                                                              
0.000140519 1.03569 244.61                                                      
S2                                                                              
0.000145444 1 180                                                               
K2                                                                              
0.000145842 0.760365 189.728                                                    
Q1                                                                              
9.90000010e-03 1.71377985e+02                                                   
9.80000019e-03 1.69519207e+02                                                   
9.67141854e-03 1.67423980e+02                                                   
9.63308075e-03 1.65701571e+02                                                   
9.59999979e-03 1.63842832e+02                                                   
9.53311105e-03 1.61996134e+02                                                   
9.43311594e-03 1.59718064e+02                                                   
9.49999988e-03 1.58717908e+02                                                   
9.49999988e-03 1.57281036e+02                                                   
9.49999988e-03 1.55589594e+02                                                   
9.49999988e-03 1.53352067e+02                                                   
9.59999979e-03 1.52221412e+02                                                   
9.63307915e-03 1.50820821e+02                                                   
9.73308585e-03 1.49316351e+02                                                   
9.80000019e-03 1.46817109e+02                                                   
9.83308496e-03 1.46977449e+02                                                   
9.90000010e-03 1.46976596e+02                                                   
1.00000000e-02 1.46710436e+02                                                   
1.00330656e-02 1.46335646e+02                                                   
1.01330743e-02 1.45825158e+02                                                   
1.02136302e-02 1.45175552e+02                                                   
1.02999997e-02 1.44272808e+02                                                   
1.03622685e-02 1.42419118e+02                                                   
1.05790610e-02 1.43260387e+02                                                   
1.07627693e-02 1.43880958e+02                                                   
1.10126474e-02 1.44174658e+02                                                   
1.13317455e-02 1.43473502e+02                                                   
1.11597105e-02 1.42978452e+02                                                   
1.03246251e-02 1.44864857e+02                                                   
8.61820638e-03 1.54327340e+02                                                   
7.41039190e-03 1.60335643e+02                                                   
6.32684243e-03 1.63770507e+02                                                   
5.16130644e-03 1.67495342e+02                                                   
4.29368319e-03 1.69485595e+02                                                   
3.51820959e-03 1.73856449e+02                                                   
2.81849116e-03 1.82899054e+02                                                   
2.48205675e-03 1.89679787e+02                                                   
2.30451439e-03 2.00790199e+02                                                   
2.20055604e-03 2.12469846e+02                                                   
2.20050564e-03 2.24639210e+02                                                   
2.24331040e-03 2.37557357e+02                                                   
2.41211515e-03 2.51346800e+02                                                   
2.73912960e-03 2.61440938e+02                                                   
3.11635519e-03 2.70556405e+02                                                   
3.64884797e-03 2.76569736e+02                                                   
4.22001510e-03 2.80378220e+02                                                   
4.81167196e-03 2.83123224e+02                                                   
5.46033117e-03 2.84307429e+02                                                   
6.11115113e-03 2.85733611e+02                                                   
6.75330397e-03 2.86939124e+02                                                   
7.21802547e-03 2.86977042e+02                                                   
6.99999988e-03 2.85910004e+02                                                   
O1                                                                              
4.66355968e-02 1.98634918e+02                                                   
4.61200354e-02 1.96939427e+02                                                   
4.55044740e-02 1.96157866e+02                                                   
4.53661636e-02 1.93098190e+02                                                   
4.53662148e-02 1.90488637e+02                                                   
4.53662244e-02 1.88432758e+02                                                   
4.54317036e-02 1.86348341e+02                                                   
4.59417609e-02 1.85344732e+02                                                   
4.63849350e-02 1.84284886e+02                                                   
4.68641727e-02 1.83498447e+02                                                   
4.70992076e-02 1.83975761e+02                                                   
4.77951596e-02 1.81380805e+02                                                   
4.85469027e-02 1.79666821e+02                                                   
4.96462877e-02 1.78626871e+02                                                   
5.30175659e-02 1.77906042e+02                                                   
5.19460110e-02 1.77357315e+02                                                   
5.12474417e-02 1.76852908e+02                                                   
5.12745486e-02 1.76417760e+02                                                   
5.14953882e-02 1.76031992e+02                                                   
5.19778757e-02 1.75690949e+02                                                   
5.25934287e-02 1.75430083e+02                                                   
5.34303820e-02 1.75286336e+02                                                   
5.48041601e-02 1.75501503e+02                                                   
5.44202211e-02 1.74873182e+02                                                   
5.40034019e-02 1.74394986e+02                                                   
5.36865840e-02 1.73799811e+02                                                   
5.33171980e-02 1.72858942e+02                                                   
4.73736178e-02 1.72766531e+02                                                   
4.17069632e-02 1.74645646e+02                                                   
3.58203562e-02 1.80898866e+02                                                   
3.02523022e-02 1.81609955e+02                                                   
2.52434082e-02 1.83085652e+02                                                   
1.87446153e-02 1.88115716e+02                                                   
1.33670136e-02 1.99445839e+02                                                   
9.46113917e-03 2.14649305e+02                                                   
7.32377913e-03 2.37271661e+02                                                   
6.45694552e-03 2.52726077e+02                                                   
6.96266091e-03 2.74480260e+02                                                   
7.93503692e-03 2.91073710e+02                                                   
9.49177450e-03 3.05098993e+02                                                   
1.14851873e-02 3.13991491e+02                                                   
1.38584640e-02 3.19631825e+02                                                   
1.64962272e-02 3.22571800e+02                                                   
1.91218526e-02 3.25575590e+02                                                   
2.19410209e-02 3.27370623e+02                                                   
2.50541458e-02 3.28493268e+02                                                   
2.84048326e-02 3.29315644e+02                                                   
3.29788732e-02 3.29668225e+02                                                   
3.76586378e-02 3.30153933e+02                                                   
4.23977693e-02 3.30179249e+02                                                   
4.55604239e-02 3.29098689e+02                                                   
4.38999987e-02 3.28829987e+02                                                   
P1                                                                              
1.86024825e-02 1.97623346e+02                                                   
1.85330850e-02 1.95349302e+02                                                   
1.84946922e-02 1.93173205e+02                                                   
1.85330810e-02 1.90773000e+02                                                   
1.85331066e-02 1.88482086e+02                                                   
1.87331112e-02 1.86512615e+02                                                   
1.89331158e-02 1.84732956e+02                                                   
1.91086357e-02 1.83077513e+02                                                   
1.93331318e-02 1.81594590e+02                                                   
1.96310740e-02 1.80157760e+02                                                   
1.99330697e-02 1.78895218e+02                                                   
2.03620845e-02 1.77465057e+02                                                   
2.08138232e-02 1.76227741e+02                                                   
2.11931245e-02 1.75266337e+02                                                   
2.16724256e-02 1.74523758e+02                                                   
2.19290245e-02 1.74118660e+02                                                   
2.21517931e-02 1.73753933e+02                                                   
2.23414778e-02 1.73427968e+02                                                   
2.26311615e-02 1.73138092e+02                                                   
2.28389373e-02 1.72841103e+02                                                   
2.31467138e-02 1.72570817e+02                                                   
2.33999991e-02 1.72293837e+02                                                   
2.36622677e-02 1.72029378e+02                                                   
2.39790626e-02 1.71572929e+02                                                   
2.42661719e-02 1.71053144e+02                                                   
2.45457244e-02 1.70424791e+02                                                   
2.48158730e-02 1.69831683e+02                                                   
2.46783619e-02 1.68208585e+02                                                   
2.33529072e-02 1.68119172e+02                                                   
1.74536325e-02 1.70006255e+02                                                   
1.57766401e-02 1.69647915e+02                                                   
1.46014719e-02 1.66807022e+02                                                   
1.34943949e-02 1.62823256e+02                                                   
1.24169147e-02 1.59053896e+02                                                   
1.11968123e-02 1.54356564e+02                                                   
1.00428815e-02 1.49010512e+02                                                   
9.52283598e-03 1.45515542e+02                                                   
9.04425913e-03 1.41641745e+02                                                   
8.56090163e-03 1.37131836e+02                                                   
8.09629422e-03 1.31933379e+02                                                   
7.58021107e-03 1.24940299e+02                                                   
7.12430636e-03 1.16893530e+02                                                   
6.83182327e-03 1.07621826e+02                                                   
6.59907366e-03 9.75962084e+01                                                   
6.62474164e-03 8.70657664e+01                                                   
6.89794641e-03 7.72651159e+01                                                   
7.28423439e-03 6.81513473e+01                                                   
7.95029445e-03 5.96780686e+01                                                   
8.70894003e-03 5.11353678e+01                                                   
9.53595830e-03 4.36617986e+01                                                   
9.96901743e-03 3.85751606e+01                                                   
9.59999979e-03 3.94399986e+01                                                   
K1                                                                              
5.04993459e-02 1.94913447e+02                                                   
5.05992554e-02 1.90937488e+02                                                   
5.07991664e-02 1.87882998e+02                                                   
5.13307379e-02 1.85103314e+02                                                   
5.22020276e-02 1.83037294e+02                                                   
5.30824806e-02 1.81237135e+02                                                   
5.31993481e-02 1.78320176e+02                                                   
5.36748851e-02 1.76479896e+02                                                   
5.43036055e-02 1.75077238e+02                                                   
5.49952464e-02 1.74138444e+02                                                   
5.55764856e-02 1.74966300e+02                                                   
5.66282343e-02 1.71535430e+02                                                   
5.77469034e-02 1.69301690e+02                                                   
5.86862485e-02 1.68015627e+02                                                   
5.95055163e-02 1.67176446e+02                                                   
5.98951944e-02 1.66928983e+02                                                   
6.01848730e-02 1.66830123e+02                                                   
6.02244344e-02 1.67016680e+02                                                   
6.11604204e-02 1.66581389e+02                                                   
6.19448005e-02 1.66442406e+02                                                   
6.25934287e-02 1.66439043e+02                                                   
6.32758913e-02 1.66528198e+02                                                   
6.39914338e-02 1.66667547e+02                                                   
6.47250283e-02 1.66824644e+02                                                   
6.54586244e-02 1.66926516e+02                                                   
6.63717880e-02 1.66624101e+02                                                   
6.74962704e-02 1.65881469e+02                                                   
6.23280031e-02 1.62096695e+02                                                   
5.58248584e-02 1.58981138e+02                                                   
4.63070706e-02 1.57729582e+02                                                   
4.32526121e-02 1.50495580e+02                                                   
4.06191086e-02 1.43501231e+02                                                   
3.74232934e-02 1.32984205e+02                                                   
3.46647504e-02 1.21921782e+02                                                   
3.36662941e-02 1.12492306e+02                                                   
3.38023867e-02 1.04848403e+02                                                   
3.40360395e-02 1.00149996e+02                                                   
3.46497011e-02 9.50509085e+01                                                   
3.54278652e-02 9.00062256e+01                                                   
3.64513642e-02 8.48605674e+01                                                   
3.75433330e-02 8.00471817e+01                                                   
3.88520580e-02 7.55639222e+01                                                   
4.04252699e-02 7.12868954e+01                                                   
4.20677521e-02 6.68828869e+01                                                   
4.40590433e-02 6.26513579e+01                                                   
4.64216221e-02 5.84895007e+01                                                   
4.90316424e-02 5.43162796e+01                                                   
5.25948056e-02 4.96084569e+01                                                   
5.62802247e-02 4.47775511e+01                                                   
6.02997417e-02 4.05153194e+01                                                   
6.24948396e-02 3.70933978e+01                                                   
6.07000017e-02 3.81899986e+01                                                   
N2                                                                              
5.74887616e-02 3.32558430e+02                                                   
6.03299280e-02 3.32838227e+02                                                   
6.32359329e-02 3.33058249e+02                                                   
6.58921439e-02 3.33402444e+02                                                   
6.85033831e-02 3.33606962e+02                                                   
7.07667481e-02 3.33791607e+02                                                   
7.27618782e-02 3.34094029e+02                                                   
7.47927836e-02 3.33780598e+02                                                   
7.65554061e-02 3.33651397e+02                                                   
7.82932217e-02 3.33639732e+02                                                   
7.95868268e-02 3.34239277e+02                                                   
8.16572410e-02 3.32917291e+02                                                   
8.35414754e-02 3.32027796e+02                                                   
8.49793746e-02 3.31425205e+02                                                   
8.65448494e-02 3.31375653e+02                                                   
8.73573055e-02 3.30653167e+02                                                   
8.81553789e-02 3.30046159e+02                                                   
8.89913624e-02 3.29538861e+02                                                   
8.97934866e-02 3.29049684e+02                                                   
9.06168137e-02 3.28526497e+02                                                   
9.15265147e-02 3.27973878e+02                                                   
9.22420760e-02 3.27371544e+02                                                   
9.26032464e-02 3.26661433e+02                                                   
9.39622109e-02 3.25992047e+02                                                   
9.51834186e-02 3.25245905e+02                                                   
9.62710177e-02 3.24438393e+02                                                   
9.69137601e-02 3.23818395e+02                                                   
9.83343548e-02 3.22591470e+02                                                   
1.02385899e-01 3.22648422e+02                                                   
1.10007785e-01 3.25646564e+02                                                   
1.11948692e-01 3.26095679e+02                                                   
1.12297026e-01 3.26124740e+02                                                   
1.12612538e-01 3.25976512e+02                                                   
1.13792142e-01 3.25904591e+02                                                   
1.14909086e-01 3.25805266e+02                                                   
1.15633069e-01 3.25544396e+02                                                   
1.15910437e-01 3.25325188e+02                                                   
1.15964455e-01 3.25049783e+02                                                   
1.15940103e-01 3.24769231e+02                                                   
1.15881123e-01 3.24505425e+02                                                   
1.15736434e-01 3.24249359e+02                                                   
1.15527940e-01 3.23978532e+02                                                   
1.15409773e-01 3.23732795e+02                                                   
1.15189875e-01 3.23473902e+02                                                   
1.14788655e-01 3.23173752e+02                                                   
1.14356496e-01 3.22832587e+02                                                   
1.13914489e-01 3.22467592e+02                                                   
1.13191810e-01 3.21939496e+02                                                   
1.12406718e-01 3.21424191e+02                                                   
1.11569990e-01 3.20958029e+02                                                   
1.10833694e-01 3.20722333e+02                                                   
1.10799999e-01 3.20880005e+02                                                   
M2                                                                              
2.60177577e-01 3.53604744e+02                                                   
2.72587364e-01 3.53870236e+02                                                   
2.84958810e-01 3.54081098e+02                                                   
2.97631564e-01 3.54169618e+02                                                   
3.09889227e-01 3.54209865e+02                                                   
3.20584580e-01 3.54179877e+02                                                   
3.30250238e-01 3.54020218e+02                                                   
3.38664554e-01 3.53757946e+02                                                   
3.46826445e-01 3.53566205e+02                                                   
3.55334387e-01 3.53327840e+02                                                   
3.64057537e-01 3.52841523e+02                                                   
3.72041722e-01 3.52585417e+02                                                   
3.80414324e-01 3.52200089e+02                                                   
3.88044998e-01 3.51753889e+02                                                   
3.94236731e-01 3.51139971e+02                                                   
3.97904110e-01 3.50801718e+02                                                   
4.02115863e-01 3.50433646e+02                                                   
4.08293701e-01 3.50004684e+02                                                   
4.08288063e-01 3.49586002e+02                                                   
4.10650427e-01 3.49055909e+02                                                   
4.13467142e-01 3.48457837e+02                                                   
4.16544917e-01 3.47772972e+02                                                   
4.19213902e-01 3.46880134e+02                                                   
4.24299512e-01 3.46341648e+02                                                   
4.29401329e-01 3.45714726e+02                                                   
4.34277059e-01 3.45034879e+02                                                   
4.35711688e-01 3.44408533e+02                                                   
4.47174100e-01 3.44524914e+02                                                   
4.63847271e-01 3.45480330e+02                                                   
5.00603512e-01 3.47494926e+02                                                   
5.07986017e-01 3.47845091e+02                                                   
5.14043937e-01 3.47990006e+02                                                   
5.20517453e-01 3.48049436e+02                                                   
5.28141741e-01 3.48209993e+02                                                   
5.33748210e-01 3.48124105e+02                                                   
5.37063928e-01 3.47742205e+02                                                   
5.38481853e-01 3.47535116e+02                                                   