test_swan                                ! 32 CHARACTER ALPHANUMERIC RUN DESCRIPTION
0                                        ! 24 CHARACTER ALPHANUMERIC RUN IDENTIFICATION
1                                        ! NFOVER - NONFATAL ERROR OVERRIDE OPTION
0                                        ! NABOUT - ABREVIATED OUTPUT OPTION PARAMETER
1000                                     ! NSCREEN - OUTPUT TO UNIT 6 PARAMETER
0                                        ! IHOT - HOT START OPTION PARAMETER
2                                        ! ICS - COORDINATE SYSTEM OPTION PARAMETER
0                                        ! IM - MODEL RUN TYPE: 0,10,20,30 = 2DDI, 1,11,21,31 = 3D(VS), 2 = 3D(DSS)
1                                        ! NOLIBF - NONLINEAR BOTTOM FRICTION OPTION
0                                        ! NOLIFA - OPTION TO INCLUDE FINITE AMPLITUDE TERMS
0                                        ! NOLICA - OPTION TO INCLUDE CONVECTIVE ACCELERATION TERMS
0                                        ! NOLICAT - OPTION TO CONSIDER TIME DERIVATIVE OF CONV ACC TERMS
0                                        ! NWP - Number of nodal attributes.
0                                        ! NCOR - VARIABLE CORIOLIS IN SPACE OPTION PARAMETER
1                                        ! NTIP - TIDAL POTENTIAL OPTION PARAMETER
320                                      ! NWS - WIND STRESS AND BAROMETRIC PRESSURE OPTION PARAMETER
0                                        ! NRAMP - RAMP FUNCTION OPTION
9.80665                                  ! G - ACCELERATION DUE TO GRAVITY - DETERMINES UNITS
0                                        ! TAU0 - WEIGHTING FACTOR IN GWCE
20.0                                     ! DTDP - TIME STEP (IN SECONDS)
0.0                                      ! STATIM - STARTING SIMULATION TIME IN DAYS
0.0                                      ! REFTIME - REFERENCE TIME (IN DAYS) FOR NODAL FACTORS AND EQUILIBRIUM ARGS
2016 10 03 00 1 0.9 1 3600.0             ! YYYY MM DD HH24 StormNumber BLAdj geofactor
2.0                                      ! RNDAY - TOTAL LENGTH OF SIMULATION (IN DAYS)
0.00000                                  ! DRAMP - DURATION OF RAMP FUNCTION (IN DAYS)
0.350000 0.300000 0.350000               ! TIME WEIGHTING FACTORS FOR THE GWCE EQUATION
0.05                                     ! H0 - MINIMUM WATER DEPTH AND DRYING/WETTING OPTIONS
-74.388132 18.852683                     ! SLAM0, SFEA0 - LONGITUDE AND LATITUDE ON WHICH THE CPP COORDINATE PROJECTION IS CENTERED
0.0025                                   ! CF
3.0                                      ! ESLM - SPATIALLY CONSTANT HORIZONTAL EDDY VISCOSITY FOR THE MOMENTUM EQUATIONS
0.0                                      ! CORI - CONSTANT CORIOLIS COEFFICIENT
13                                       ! NTIF - NUMBER OF TIDAL POTENTIAL CONSTITUENTS
2N2                                      ! TIPOTAG - NAME OF TIDAL POTENTIAL CONSTITUENT
0.0 0.000135240496464 0.069 1.0879740880078232 298.14309059113634  ! TPK, AMIGT, ETRF, FFT, FACET - CONSTITUENT PROPERTIES
K1                                       ! TIPOTAG - NAME OF TIDAL POTENTIAL CONSTITUENT
0.141565 7.2921158358e-05 0.736 0.48574877452801485 279.7355425138277  ! TPK, AMIGT, ETRF, FFT, FACET - CONSTITUENT PROPERTIES
K2                                       ! TIPOTAG - NAME OF TIDAL POTENTIAL CONSTITUENT
0.030704 0.000145842317201 0.693 0.3491888867497457 20.097883911846566  ! TPK, AMIGT, ETRF, FFT, FACET - CONSTITUENT PROPERTIES
L2                                       ! TIPOTAG - NAME OF TIDAL POTENTIAL CONSTITUENT
0.0 0.000143158105531 0.069 0.0 0.0      ! TPK, AMIGT, ETRF, FFT, FACET - CONSTITUENT PROPERTIES
M2                                       ! TIPOTAG - NAME OF TIDAL POTENTIAL CONSTITUENT
0.242334 0.000140518902509 0.693 1.0879740880078232 296.6487735525286  ! TPK, AMIGT, ETRF, FFT, FACET - CONSTITUENT PROPERTIES
MU2                                      ! TIPOTAG - NAME OF TIDAL POTENTIAL CONSTITUENT
0.0 0.000135593700684 0.069 1.0879740880078232 233.98890100803942  ! TPK, AMIGT, ETRF, FFT, FACET - CONSTITUENT PROPERTIES
N2                                       ! TIPOTAG - NAME OF TIDAL POTENTIAL CONSTITUENT
0.046398 0.000137879699487 0.693 1.0879740880078232 117.39593207183246  ! TPK, AMIGT, ETRF, FFT, FACET - CONSTITUENT PROPERTIES
NU2                                      ! TIPOTAG - NAME OF TIDAL POTENTIAL CONSTITUENT
0.0 0.000138232903707 0.069 1.0879740880078232 53.241742488735554  ! TPK, AMIGT, ETRF, FFT, FACET - CONSTITUENT PROPERTIES
O1                                       ! TIPOTAG - NAME OF TIDAL POTENTIAL CONSTITUENT
0.100514 6.7597744151e-05 0.695 0.23558992869104997 18.782768255738034  ! TPK, AMIGT, ETRF, FFT, FACET - CONSTITUENT PROPERTIES
P1                                       ! TIPOTAG - NAME OF TIDAL POTENTIAL CONSTITUENT
0.046834 7.2522945975e-05 0.706 1.0 76.8788736007973  ! TPK, AMIGT, ETRF, FFT, FACET - CONSTITUENT PROPERTIES
Q1                                       ! TIPOTAG - NAME OF TIDAL POTENTIAL CONSTITUENT
0.019256 6.4958541129e-05 0.695 0.23558992869104997 199.5299267750419  ! TPK, AMIGT, ETRF, FFT, FACET - CONSTITUENT PROPERTIES
S2                                       ! TIPOTAG - NAME OF TIDAL POTENTIAL CONSTITUENT
0.112841 0.000145444104333 0.693 1.0 360.0  ! TPK, AMIGT, ETRF, FFT, FACET - CONSTITUENT PROPERTIES
T2                                       ! TIPOTAG - NAME OF TIDAL POTENTIAL CONSTITUENT
0.0 0.000145245007353 0.069 1.0 90.10429294649123  ! TPK, AMIGT, ETRF, FFT, FACET - CONSTITUENT PROPERTIES
13                                       ! NBFR - NUMBER OF PERIODIC FORCING FREQUENCIES ON ELEVATION SPECIFIED BOUNDARIES
2N2                                      ! BOUNTAG - NAME OF TIDAL FORCING CONSTITUENT
0.000135240496464 1.0879740880078232 298.14309059113634   ! AMIG, FF, FACE - CONSTITUENT PROPERTIES
K1                                       ! BOUNTAG - NAME OF TIDAL FORCING CONSTITUENT
7.2921158358e-05 0.48574877452801485 279.7355425138277   ! AMIG, FF, FACE - CONSTITUENT PROPERTIES
K2                                       ! BOUNTAG - NAME OF TIDAL FORCING CONSTITUENT
0.000145842317201 0.3491888867497457 20.097883911846566   ! AMIG, FF, FACE - CONSTITUENT PROPERTIES
L2                                       ! BOUNTAG - NAME OF TIDAL FORCING CONSTITUENT
0.000143158105531 0.0 0.0   ! AMIG, FF, FACE - CONSTITUENT PROPERTIES
M2                                       ! BOUNTAG - NAME OF TIDAL FORCING CONSTITUENT
0.000140518902509 1.0879740880078232 296.6487735525286   ! AMIG, FF, FACE - CONSTITUENT PROPERTIES
MU2                                      ! BOUNTAG - NAME OF TIDAL FORCING CONSTITUENT
0.000135593700684 1.0879740880078232 233.98890100803942   ! AMIG, FF, FACE - CONSTITUENT PROPERTIES
N2                                       ! BOUNTAG - NAME OF TIDAL FORCING CONSTITUENT
0.000137879699487 1.0879740880078232 117.39593207183246   ! AMIG, FF, FACE - CONSTITUENT PROPERTIES
NU2                                      ! BOUNTAG - NAME OF TIDAL FORCING CONSTITUENT
0.000138232903707 1.0879740880078232 53.241742488735554   ! AMIG, FF, FACE - CONSTITUENT PROPERTIES
O1                                       ! BOUNTAG - NAME OF TIDAL FORCING CONSTITUENT
6.7597744151e-05 0.23558992869104997 18.782768255738034   ! AMIG, FF, FACE - CONSTITUENT PROPERTIES
P1                                       ! BOUNTAG - NAME OF TIDAL FORCING CONSTITUENT
7.2522945975e-05 1.0 76.8788736007973   ! AMIG, FF, FACE - CONSTITUENT PROPERTIES
Q1                                       ! BOUNTAG - NAME OF TIDAL FORCING CONSTITUENT
6.4958541129e-05 0.23558992869104997 199.5299267750419   ! AMIG, FF, FACE - CONSTITUENT PROPERTIES
S2                                       ! BOUNTAG - NAME OF TIDAL FORCING CONSTITUENT
0.000145444104333 1.0 360.0   ! AMIG, FF, FACE - CONSTITUENT PROPERTIES
T2                                       ! BOUNTAG - NAME OF TIDAL FORCING CONSTITUENT
0.000145245007353 1.0 90.10429294649123   ! AMIG, FF, FACE - CONSTITUENT PROPERTIES
2N2                                      ! ALPHA - NAME OF TIDAL FORCING CONSTITUENT
0.006280 118.590   ! EMO, EFA - NODE CONSTITUENT PROPERTIES
0.006281 118.591   ! EMO, EFA - NODE CONSTITUENT PROPERTIES
0.006279 118.521   ! EMO, EFA - NODE CONSTITUENT PROPERTIES
0.006268 118.025   ! EMO, EFA - NODE CONSTITUENT PROPERTIES
0.006257 117.527   ! EMO, EFA - NODE CONSTITUENT PROPERTIES
0.006251 117.230   ! EMO, EFA - NODE CONSTITUENT PROPERTIES
0.006241 116.727   ! EMO, EFA - NODE CONSTITUENT PROPERTIES
0.006235 116.429   ! EMO, EFA - NODE CONSTITUENT PROPERTIES
0.006203 115.612   ! EMO, EFA - NODE CONSTITUENT PROPERTIES
0.006176 114.896   ! EMO, EFA - NODE CONSTITUENT PROPERTIES
0.006159 114.421   ! EMO, EFA - NODE CONSTITUENT PROPERTIES
0.006133 113.713   ! EMO, EFA - NODE CONSTITUENT PROPERTIES
0.006133 113.713   ! EMO, EFA - NODE CONSTITUENT PROPERTIES
0.006133 113.713   ! EMO, EFA - NODE CONSTITUENT PROPERTIES
0.007149 350.402   ! EMO, EFA - NODE CONSTITUENT PROPERTIES
0.007206 345.887   ! EMO, EFA - NODE CONSTITUENT PROPERTIES
0.007222 345.197   ! EMO, EFA - NODE CONSTITUENT PROPERTIES
0.007299 343.451   ! EMO, EFA - NODE CONSTITUENT PROPERTIES
0.007543 342.599   ! EMO, EFA - NODE CONSTITUENT PROPERTIES
0.007756 341.919   ! EMO, EFA - NODE CONSTITUENT PROPERTIES
0.008063 340.981   ! EMO, EFA - NODE CONSTITUENT PROPERTIES
0.008995 338.542   ! EMO, EFA - NODE CONSTITUENT PROPERTIES
0.009332 337.556   ! EMO, EFA - NODE CONSTITUENT PROPERTIES
0.009668 336.553   ! EMO, EFA - NODE CONSTITUENT PROPERTIES
0.009856 336.025   ! EMO, EFA - NODE CONSTITUENT PROPERTIES
0.010158 335.638   ! EMO, EFA - NODE CONSTITUENT PROPERTIES
0.010235 335.572   ! EMO, EFA - NODE CONSTITUENT PROPERTIES
0.010226 335.386   ! EMO, EFA - NODE CONSTITUENT PROPERTIES
0.010213 335.262   ! EMO, EFA - NODE CONSTITUENT PROPERTIES
0.010200 335.138   ! EMO, EFA - NODE CONSTITUENT PROPERTIES
0.010187 335.017   ! EMO, EFA - NODE CONSTITUENT PROPERTIES
0.010187 335.017   ! EMO, EFA - NODE CONSTITUENT PROPERTIES
0.010187 335.017   ! EMO, EFA - NODE CONSTITUENT PROPERTIES
0.006728 132.786   ! EMO, EFA - NODE CONSTITUENT PROPERTIES
0.006728 132.786   ! EMO, EFA - NODE CONSTITUENT PROPERTIES
0.006728 132.786   ! EMO, EFA - NODE CONSTITUENT PROPERTIES
0.006733 132.900   ! EMO, EFA - NODE CONSTITUENT PROPERTIES
0.006740 133.041   ! EMO, EFA - NODE CONSTITUENT PROPERTIES
0.006749 133.239   ! EMO, EFA - NODE CONSTITUENT PROPERTIES
0.006755 133.380   ! EMO, EFA - NODE CONSTITUENT PROPERTIES
0.006769 133.532   ! EMO, EFA - NODE CONSTITUENT PROPERTIES
0.006822 133.698   ! EMO, EFA - NODE CONSTITUENT PROPERTIES
0.006927 133.875   ! EMO, EFA - NODE CONSTITUENT PROPERTIES
0.006954 133.894   ! EMO, EFA - NODE CONSTITUENT PROPERTIES
0.006992 133.919   ! EMO, EFA - NODE CONSTITUENT PROPERTIES
0.007030 133.944   ! EMO, EFA - NODE CONSTITUENT PROPERTIES
0.007125 133.938   ! EMO, EFA - NODE CONSTITUENT PROPERTIES
0.007150 133.934   ! EMO, EFA - NODE CONSTITUENT PROPERTIES
0.007168 133.839   ! EMO, EFA - NODE CONSTITUENT PROPERTIES
0.007175 133.675   ! EMO, EFA - NODE CONSTITUENT PROPERTIES
0.007180 133.574   ! EMO, EFA - NODE CONSTITUENT PROPERTIES
0.007183 133.511   ! EMO, EFA - NODE CONSTITUENT PROPERTIES
0.007196 132.932   ! EMO, EFA - NODE CONSTITUENT PROPERTIES
0.007207 132.430   ! EMO, EFA - NODE CONSTITUENT PROPERTIES
0.007234 131.590   ! EMO, EFA - NODE CONSTITUENT PROPERTIES
0.007239 131.411   ! EMO, EFA - NODE CONSTITUENT PROPERTIES
0.007247 131.168   ! EMO, EFA - NODE CONSTITUENT PROPERTIES
0.007285 131.023   ! EMO, EFA - NODE CONSTITUENT PROPERTIES
0.007338 130.831   ! EMO, EFA - NODE CONSTITUENT PROPERTIES
0.007365 130.735   ! EMO, EFA - NODE CONSTITUENT PROPERTIES
0.007405 130.595   ! EMO, EFA - NODE CONSTITUENT PROPERTIES
0.007526 130.181   ! EMO, EFA - NODE CONSTITUENT PROPERTIES
0.007585 130.103   ! EMO, EFA - NODE CONSTITUENT PROPERTIES
0.007843 130.012   ! EMO, EFA - NODE CONSTITUENT PROPERTIES
0.007886 130.029   ! EMO, EFA - NODE CONSTITUENT PROPERTIES
0.007935 130.016   ! EMO, EFA - NODE CONSTITUENT PROPERTIES
0.008011 130.000   ! EMO, EFA - NODE CONSTITUENT PROPERTIES
0.008111 129.985   ! EMO, EFA - NODE CONSTITUENT PROPERTIES
0.008186 130.073   ! EMO, EFA - NODE CONSTITUENT PROPERTIES
0.008437 130.353   ! EMO, EFA - NODE CONSTITUENT PROPERTIES
0.008512 130.434   ! EMO, EFA - NODE CONSTITUENT PROPERTIES
0.008703 130.651   ! EMO, EFA - NODE CONSTITUENT PROPERTIES
0.008717 130.554   ! EMO, EFA - NODE CONSTITUENT PROPERTIES
0.008681 130.338   ! EMO, EFA - NODE CONSTITUENT PROPERTIES
0.008681 130.338   ! EMO, EFA - NODE CONSTITUENT PROPERTIES
0.008681 130.338   ! EMO, EFA - NODE CONSTITUENT PROPERTIES
0.008673 130.325   ! EMO, EFA - NODE CONSTITUENT PROPERTIES
K1                                       ! ALPHA - NAME OF TIDAL FORCING CONSTITUENT
0.046159 230.028   ! EMO, EFA - NODE CONSTITUENT PROPERTIES
0.046156 230.030   ! EMO, EFA - NODE CONSTITUENT PROPERTIES
0.046145 230.123   ! EMO, EFA - NODE CONSTITUENT PROPERTIES
0.046073 230.783   ! EMO, EFA - NODE CONSTITUENT PROPERTIES
0.046002 231.451   ! EMO, EFA - NODE CONSTITUENT PROPERTIES
0.045965 231.847   ! EMO, EFA - NODE CONSTITUENT PROPERTIES
0.045907 232.517   ! EMO, EFA - NODE CONSTITUENT PROPERTIES
0.045875 232.914   ! EMO, EFA - NODE CONSTITUENT PROPERTIES
0.045999 233.551   ! EMO, EFA - NODE CONSTITUENT PROPERTIES
0.046122 234.076   ! EMO, EFA - NODE CONSTITUENT PROPERTIES
0.046205 234.421   ! EMO, EFA - NODE CONSTITUENT PROPERTIES
0.046332 234.923   ! EMO, EFA - NODE CONSTITUENT PROPERTIES
0.046333 234.923   ! EMO, EFA - NODE CONSTITUENT PROPERTIES
0.046333 234.923   ! EMO, EFA - NODE CONSTITUENT PROPERTIES
0.069741 212.636   ! EMO, EFA - NODE CONSTITUENT PROPERTIES
0.068871 210.934   ! EMO, EFA - NODE CONSTITUENT PROPERTIES
0.068749 210.666   ! EMO, EFA - NODE CONSTITUENT PROPERTIES
0.068533 209.970   ! EMO, EFA - NODE CONSTITUENT PROPERTIES
0.068946 209.546   ! EMO, EFA - NODE CONSTITUENT PROPERTIES
0.069309 209.188   ! EMO, EFA - NODE CONSTITUENT PROPERTIES
0.069828 208.672   ! EMO, EFA - NODE CONSTITUENT PROPERTIES
0.071419 207.164   ! EMO, EFA - NODE CONSTITUENT PROPERTIES
0.072126 206.608   ! EMO, EFA - NODE CONSTITUENT PROPERTIES
0.072886 206.056   ! EMO, EFA - NODE CONSTITUENT PROPERTIES
0.073312 205.754   ! EMO, EFA - NODE CONSTITUENT PROPERTIES
0.074023 205.513   ! EMO, EFA - NODE CONSTITUENT PROPERTIES
0.074224 205.483   ! EMO, EFA - NODE CONSTITUENT PROPERTIES
0.074315 205.477   ! EMO, EFA - NODE CONSTITUENT PROPERTIES
0.074358 205.475   ! EMO, EFA - NODE CONSTITUENT PROPERTIES
0.074403 205.474   ! EMO, EFA - NODE CONSTITUENT PROPERTIES
0.074445 205.472   ! EMO, EFA - NODE CONSTITUENT PROPERTIES
0.074445 205.472   ! EMO, EFA - NODE CONSTITUENT PROPERTIES
0.074445 205.472   ! EMO, EFA - NODE CONSTITUENT PROPERTIES
0.069143 224.800   ! EMO, EFA - NODE CONSTITUENT PROPERTIES
0.069143 224.800   ! EMO, EFA - NODE CONSTITUENT PROPERTIES
0.069143 224.800   ! EMO, EFA - NODE CONSTITUENT PROPERTIES
0.069339 224.837   ! EMO, EFA - NODE CONSTITUENT PROPERTIES
0.069582 224.882   ! EMO, EFA - NODE CONSTITUENT PROPERTIES
0.069924 224.944   ! EMO, EFA - NODE CONSTITUENT PROPERTIES
0.070169 224.989   ! EMO, EFA - NODE CONSTITUENT PROPERTIES
0.070383 224.995   ! EMO, EFA - NODE CONSTITUENT PROPERTIES
0.070350 225.000   ! EMO, EFA - NODE CONSTITUENT PROPERTIES
0.070000 225.026   ! EMO, EFA - NODE CONSTITUENT PROPERTIES
0.069843 225.048   ! EMO, EFA - NODE CONSTITUENT PROPERTIES
0.069623 225.080   ! EMO, EFA - NODE CONSTITUENT PROPERTIES
0.069402 225.112   ! EMO, EFA - NODE CONSTITUENT PROPERTIES
0.068787 225.243   ! EMO, EFA - NODE CONSTITUENT PROPERTIES
0.068622 225.280   ! EMO, EFA - NODE CONSTITUENT PROPERTIES
0.068302 225.336   ! EMO, EFA - NODE CONSTITUENT PROPERTIES
0.067892 225.400   ! EMO, EFA - NODE CONSTITUENT PROPERTIES
0.067639 225.440   ! EMO, EFA - NODE CONSTITUENT PROPERTIES
0.067483 225.465   ! EMO, EFA - NODE CONSTITUENT PROPERTIES
0.066671 225.478   ! EMO, EFA - NODE CONSTITUENT PROPERTIES
0.066006 225.478   ! EMO, EFA - NODE CONSTITUENT PROPERTIES
0.064954 225.478   ! EMO, EFA - NODE CONSTITUENT PROPERTIES
0.064729 225.478   ! EMO, EFA - NODE CONSTITUENT PROPERTIES
0.064424 225.478   ! EMO, EFA - NODE CONSTITUENT PROPERTIES
0.064229 225.471   ! EMO, EFA - NODE CONSTITUENT PROPERTIES
0.063966 225.461   ! EMO, EFA - NODE CONSTITUENT PROPERTIES
0.063833 225.456   ! EMO, EFA - NODE CONSTITUENT PROPERTIES
0.063639 225.449   ! EMO, EFA - NODE CONSTITUENT PROPERTIES
0.063049 225.426   ! EMO, EFA - NODE CONSTITUENT PROPERTIES
0.062887 225.420   ! EMO, EFA - NODE CONSTITUENT PROPERTIES
0.062428 225.401   ! EMO, EFA - NODE CONSTITUENT PROPERTIES
0.062392 225.401   ! EMO, EFA - NODE CONSTITUENT PROPERTIES
0.062309 225.398   ! EMO, EFA - NODE CONSTITUENT PROPERTIES
0.062185 225.393   ! EMO, EFA - NODE CONSTITUENT PROPERTIES
0.062031 225.388   ! EMO, EFA - NODE CONSTITUENT PROPERTIES
0.062042 225.394   ! EMO, EFA - NODE CONSTITUENT PROPERTIES
0.062082 225.413   ! EMO, EFA - NODE CONSTITUENT PROPERTIES
0.062093 225.418   ! EMO, EFA - NODE CONSTITUENT PROPERTIES
0.062055 225.613   ! EMO, EFA - NODE CONSTITUENT PROPERTIES
0.061875 225.770   ! EMO, EFA - NODE CONSTITUENT PROPERTIES
0.061714 225.730   ! EMO, EFA - NODE CONSTITUENT PROPERTIES
0.061714 225.730   ! EMO, EFA - NODE CONSTITUENT PROPERTIES
0.061714 225.730   ! EMO, EFA - NODE CONSTITUENT PROPERTIES
0.061723 225.687   ! EMO, EFA - NODE CONSTITUENT PROPERTIES
K2                                       ! ALPHA - NAME OF TIDAL FORCING CONSTITUENT
0.011508 34.055   ! EMO, EFA - NODE CONSTITUENT PROPERTIES
0.011508 34.055   ! EMO, EFA - NODE CONSTITUENT PROPERTIES
0.011516 34.018   ! EMO, EFA - NODE CONSTITUENT PROPERTIES
0.011577 33.754   ! EMO, EFA - NODE CONSTITUENT PROPERTIES
0.011639 33.493   ! EMO, EFA - NODE CONSTITUENT PROPERTIES
0.011675 33.338   ! EMO, EFA - NODE CONSTITUENT PROPERTIES
0.011737 33.081   ! EMO, EFA - NODE CONSTITUENT PROPERTIES
0.011774 32.929   ! EMO, EFA - NODE CONSTITUENT PROPERTIES
0.011830 32.571   ! EMO, EFA - NODE CONSTITUENT PROPERTIES
0.011877 32.266   ! EMO, EFA - NODE CONSTITUENT PROPERTIES
0.011908 32.066   ! EMO, EFA - NODE CONSTITUENT PROPERTIES
0.011954 31.773   ! EMO, EFA - NODE CONSTITUENT PROPERTIES
0.011954 31.773   ! EMO, EFA - NODE CONSTITUENT PROPERTIES
0.011954 31.773   ! EMO, EFA - NODE CONSTITUENT PROPERTIES
0.010466 36.407   ! EMO, EFA - NODE CONSTITUENT PROPERTIES
0.010481 37.347   ! EMO, EFA - NODE CONSTITUENT PROPERTIES
0.010483 37.491   ! EMO, EFA - NODE CONSTITUENT PROPERTIES
0.010475 37.873   ! EMO, EFA - NODE CONSTITUENT PROPERTIES
0.010409 38.086   ! EMO, EFA - NODE CONSTITUENT PROPERTIES
0.010353 38.267   ! EMO, EFA - NODE CONSTITUENT PROPERTIES
0.010271 38.542   ! EMO, EFA - NODE CONSTITUENT PROPERTIES
0.010027 39.401   ! EMO, EFA - NODE CONSTITUENT PROPERTIES
0.009924 40.052   ! EMO, EFA - NODE CONSTITUENT PROPERTIES
0.009815 40.857   ! EMO, EFA - NODE CONSTITUENT PROPERTIES
0.009756 41.313   ! EMO, EFA - NODE CONSTITUENT PROPERTIES
0.009662 41.946   ! EMO, EFA - NODE CONSTITUENT PROPERTIES
0.009636 42.147   ! EMO, EFA - NODE CONSTITUENT PROPERTIES
0.009621 42.510   ! EMO, EFA - NODE CONSTITUENT PROPERTIES
0.009614 42.742   ! EMO, EFA - NODE CONSTITUENT PROPERTIES
0.009607 42.975   ! EMO, EFA - NODE CONSTITUENT PROPERTIES
0.009600 43.202   ! EMO, EFA - NODE CONSTITUENT PROPERTIES
0.009600 43.202   ! EMO, EFA - NODE CONSTITUENT PROPERTIES
0.009600 43.202   ! EMO, EFA - NODE CONSTITUENT PROPERTIES
0.006700 25.787   ! EMO, EFA - NODE CONSTITUENT PROPERTIES
0.006700 25.787   ! EMO, EFA - NODE CONSTITUENT PROPERTIES
0.006700 25.787   ! EMO, EFA - NODE CONSTITUENT PROPERTIES
0.006638 25.994   ! EMO, EFA - NODE CONSTITUENT PROPERTIES
0.006561 26.257   ! EMO, EFA - NODE CONSTITUENT PROPERTIES
0.006453 26.636   ! EMO, EFA - NODE CONSTITUENT PROPERTIES
0.006376 26.916   ! EMO, EFA - NODE CONSTITUENT PROPERTIES
0.006314 27.220   ! EMO, EFA - NODE CONSTITUENT PROPERTIES
0.006337 27.464   ! EMO, EFA - NODE CONSTITUENT PROPERTIES
0.006475 27.621   ! EMO, EFA - NODE CONSTITUENT PROPERTIES
0.006560 27.658   ! EMO, EFA - NODE CONSTITUENT PROPERTIES
0.006679 27.706   ! EMO, EFA - NODE CONSTITUENT PROPERTIES
0.006799 27.754   ! EMO, EFA - NODE CONSTITUENT PROPERTIES
0.007041 27.769   ! EMO, EFA - NODE CONSTITUENT PROPERTIES
0.007103 27.769   ! EMO, EFA - NODE CONSTITUENT PROPERTIES
0.007197 27.833   ! EMO, EFA - NODE CONSTITUENT PROPERTIES
0.007305 27.939   ! EMO, EFA - NODE CONSTITUENT PROPERTIES
0.007372 28.005   ! EMO, EFA - NODE CONSTITUENT PROPERTIES
0.007413 28.044   ! EMO, EFA - NODE CONSTITUENT PROPERTIES
0.007645 28.403   ! EMO, EFA - NODE CONSTITUENT PROPERTIES
0.007832 28.706   ! EMO, EFA - NODE CONSTITUENT PROPERTIES
0.008070 29.291   ! EMO, EFA - NODE CONSTITUENT PROPERTIES
0.008121 29.410   ! EMO, EFA - NODE CONSTITUENT PROPERTIES
0.008191 29.571   ! EMO, EFA - NODE CONSTITUENT PROPERTIES
0.008243 29.631   ! EMO, EFA - NODE CONSTITUENT PROPERTIES
0.008315 29.705   ! EMO, EFA - NODE CONSTITUENT PROPERTIES
0.008352 29.742   ! EMO, EFA - NODE CONSTITUENT PROPERTIES
0.008405 29.795   ! EMO, EFA - NODE CONSTITUENT PROPERTIES
0.008567 29.953   ! EMO, EFA - NODE CONSTITUENT PROPERTIES
0.008608 29.964   ! EMO, EFA - NODE CONSTITUENT PROPERTIES
0.008707 29.864   ! EMO, EFA - NODE CONSTITUENT PROPERTIES
0.008715 29.843   ! EMO, EFA - NODE CONSTITUENT PROPERTIES
0.008733 29.825   ! EMO, EFA - NODE CONSTITUENT PROPERTIES
0.008760 29.795   ! EMO, EFA - NODE CONSTITUENT PROPERTIES
0.008792 29.746   ! EMO, EFA - NODE CONSTITUENT PROPERTIES
0.008774 29.591   ! EMO, EFA - NODE CONSTITUENT PROPERTIES
0.008712 29.073   ! EMO, EFA - NODE CONSTITUENT PROPERTIES
0.008694 28.915   ! EMO, EFA - NODE CONSTITUENT PROPERTIES
0.008671 28.439   ! EMO, EFA - NODE CONSTITUENT PROPERTIES
0.008702 28.263   ! EMO, EFA - NODE CONSTITUENT PROPERTIES
0.008727 28.247   ! EMO, EFA - NODE CONSTITUENT PROPERTIES
0.008727 28.246   ! EMO, EFA - NODE CONSTITUENT PROPERTIES
0.008727 28.246   ! EMO, EFA - NODE CONSTITUENT PROPERTIES
0.008724 28.282   ! EMO, EFA - NODE CONSTITUENT PROPERTIES
L2                                       ! ALPHA - NAME OF TIDAL FORCING CONSTITUENT
0.001400 49.850   ! EMO, EFA - NODE CONSTITUENT PROPERTIES
0.001400 49.851   ! EMO, EFA - NODE CONSTITUENT PROPERTIES
0.001403 49.781   ! EMO, EFA - NODE CONSTITUENT PROPERTIES
0.001425 49.296   ! EMO, EFA - NODE CONSTITUENT PROPERTIES
0.001448 48.825   ! EMO, EFA - NODE CONSTITUENT PROPERTIES
0.001461 48.552   ! EMO, EFA - NODE CONSTITUENT PROPERTIES
0.001484 48.103   ! EMO, EFA - NODE CONSTITUENT PROPERTIES
0.001497 47.844   ! EMO, EFA - NODE CONSTITUENT PROPERTIES
0.001521 47.388   ! EMO, EFA - NODE CONSTITUENT PROPERTIES
0.001541 47.021   ! EMO, EFA - NODE CONSTITUENT PROPERTIES
0.001554 46.783   ! EMO, EFA - NODE CONSTITUENT PROPERTIES
0.001573 46.439   ! EMO, EFA - NODE CONSTITUENT PROPERTIES
0.001573 46.439   ! EMO, EFA - NODE CONSTITUENT PROPERTIES
0.001573 46.439   ! EMO, EFA - NODE CONSTITUENT PROPERTIES
0.004132 30.048   ! EMO, EFA - NODE CONSTITUENT PROPERTIES
0.004184 28.726   ! EMO, EFA - NODE CONSTITUENT PROPERTIES
0.004193 28.525   ! EMO, EFA - NODE CONSTITUENT PROPERTIES
0.004221 28.042   ! EMO, EFA - NODE CONSTITUENT PROPERTIES
0.004274 27.903   ! EMO, EFA - NODE CONSTITUENT PROPERTIES
0.004319 27.787   ! EMO, EFA - NODE CONSTITUENT PROPERTIES
0.004383 27.622   ! EMO, EFA - NODE CONSTITUENT PROPERTIES
0.004578 27.150   ! EMO, EFA - NODE CONSTITUENT PROPERTIES
0.004627 27.045   ! EMO, EFA - NODE CONSTITUENT PROPERTIES
0.004666 26.967   ! EMO, EFA - NODE CONSTITUENT PROPERTIES
0.004688 26.924   ! EMO, EFA - NODE CONSTITUENT PROPERTIES
0.004749 27.025   ! EMO, EFA - NODE CONSTITUENT PROPERTIES
0.004769 27.082   ! EMO, EFA - NODE CONSTITUENT PROPERTIES
0.004772 27.146   ! EMO, EFA - NODE CONSTITUENT PROPERTIES
0.004772 27.184   ! EMO, EFA - NODE CONSTITUENT PROPERTIES
0.004772 27.223   ! EMO, EFA - NODE CONSTITUENT PROPERTIES
0.004772 27.260   ! EMO, EFA - NODE CONSTITUENT PROPERTIES
0.004772 27.260   ! EMO, EFA - NODE CONSTITUENT PROPERTIES
0.004772 27.260   ! EMO, EFA - NODE CONSTITUENT PROPERTIES
0.000200 64.145   ! EMO, EFA - NODE CONSTITUENT PROPERTIES
0.000200 64.145   ! EMO, EFA - NODE CONSTITUENT PROPERTIES
0.000200 64.145   ! EMO, EFA - NODE CONSTITUENT PROPERTIES
0.000180 66.943   ! EMO, EFA - NODE CONSTITUENT PROPERTIES
0.000156 71.410   ! EMO, EFA - NODE CONSTITUENT PROPERTIES
0.000124 80.532   ! EMO, EFA - NODE CONSTITUENT PROPERTIES
0.000104 90.298   ! EMO, EFA - NODE CONSTITUENT PROPERTIES
0.000109 100.248   ! EMO, EFA - NODE CONSTITUENT PROPERTIES
0.000117 104.009   ! EMO, EFA - NODE CONSTITUENT PROPERTIES
0.000121 101.782   ! EMO, EFA - NODE CONSTITUENT PROPERTIES
0.000138 98.143   ! EMO, EFA - NODE CONSTITUENT PROPERTIES
0.000162 94.316   ! EMO, EFA - NODE CONSTITUENT PROPERTIES
0.000187 91.497   ! EMO, EFA - NODE CONSTITUENT PROPERTIES
0.000193 84.089   ! EMO, EFA - NODE CONSTITUENT PROPERTIES
0.000193 82.056   ! EMO, EFA - NODE CONSTITUENT PROPERTIES
0.000192 79.172   ! EMO, EFA - NODE CONSTITUENT PROPERTIES
0.000192 75.906   ! EMO, EFA - NODE CONSTITUENT PROPERTIES
0.000192 73.905   ! EMO, EFA - NODE CONSTITUENT PROPERTIES
0.000192 72.662   ! EMO, EFA - NODE CONSTITUENT PROPERTIES
0.000235 67.914   ! EMO, EFA - NODE CONSTITUENT PROPERTIES
0.000275 65.612   ! EMO, EFA - NODE CONSTITUENT PROPERTIES
0.000336 66.270   ! EMO, EFA - NODE CONSTITUENT PROPERTIES
0.000350 66.349   ! EMO, EFA - NODE CONSTITUENT PROPERTIES
0.000367 66.486   ! EMO, EFA - NODE CONSTITUENT PROPERTIES
0.000378 67.133   ! EMO, EFA - NODE CONSTITUENT PROPERTIES
0.000392 67.977   ! EMO, EFA - NODE CONSTITUENT PROPERTIES
0.000399 68.373   ! EMO, EFA - NODE CONSTITUENT PROPERTIES
0.000410 68.937   ! EMO, EFA - NODE CONSTITUENT PROPERTIES
0.000442 70.492   ! EMO, EFA - NODE CONSTITUENT PROPERTIES
0.000447 71.521   ! EMO, EFA - NODE CONSTITUENT PROPERTIES
0.000448 76.848   ! EMO, EFA - NODE CONSTITUENT PROPERTIES
0.000446 77.848   ! EMO, EFA - NODE CONSTITUENT PROPERTIES
0.000446 78.867   ! EMO, EFA - NODE CONSTITUENT PROPERTIES
0.000447 80.475   ! EMO, EFA - NODE CONSTITUENT PROPERTIES
0.000447 82.610   ! EMO, EFA - NODE CONSTITUENT PROPERTIES
0.000434 84.988   ! EMO, EFA - NODE CONSTITUENT PROPERTIES
0.000397 93.911   ! EMO, EFA - NODE CONSTITUENT PROPERTIES
0.000389 96.903   ! EMO, EFA - NODE CONSTITUENT PROPERTIES
0.000363 104.634   ! EMO, EFA - NODE CONSTITUENT PROPERTIES
0.000360 104.246   ! EMO, EFA - NODE CONSTITUENT PROPERTIES
0.000372 101.793   ! EMO, EFA - NODE CONSTITUENT PROPERTIES
0.000372 101.794   ! EMO, EFA - NODE CONSTITUENT PROPERTIES
0.000372 101.794   ! EMO, EFA - NODE CONSTITUENT PROPERTIES
0.000374 101.517   ! EMO, EFA - NODE CONSTITUENT PROPERTIES
M2                                       ! ALPHA - NAME OF TIDAL FORCING CONSTITUENT
0.059505 72.343   ! EMO, EFA - NODE CONSTITUENT PROPERTIES
0.059505 72.345   ! EMO, EFA - NODE CONSTITUENT PROPERTIES
0.059598 72.215   ! EMO, EFA - NODE CONSTITUENT PROPERTIES
0.060262 71.300   ! EMO, EFA - NODE CONSTITUENT PROPERTIES
0.060944 70.407   ! EMO, EFA - NODE CONSTITUENT PROPERTIES
0.061356 69.885   ! EMO, EFA - NODE CONSTITUENT PROPERTIES
0.062062 69.019   ! EMO, EFA - NODE CONSTITUENT PROPERTIES
0.062486 68.517   ! EMO, EFA - NODE CONSTITUENT PROPERTIES
0.063501 67.477   ! EMO, EFA - NODE CONSTITUENT PROPERTIES
0.064387 66.623   ! EMO, EFA - NODE CONSTITUENT PROPERTIES
0.064980 66.074   ! EMO, EFA - NODE CONSTITUENT PROPERTIES
0.065865 65.277   ! EMO, EFA - NODE CONSTITUENT PROPERTIES
0.065865 65.276   ! EMO, EFA - NODE CONSTITUENT PROPERTIES
0.065865 65.276   ! EMO, EFA - NODE CONSTITUENT PROPERTIES
0.195490 17.109   ! EMO, EFA - NODE CONSTITUENT PROPERTIES
0.197078 15.190   ! EMO, EFA - NODE CONSTITUENT PROPERTIES
0.197381 14.896   ! EMO, EFA - NODE CONSTITUENT PROPERTIES
0.198525 14.160   ! EMO, EFA - NODE CONSTITUENT PROPERTIES
0.201557 13.821   ! EMO, EFA - NODE CONSTITUENT PROPERTIES
0.204198 13.540   ! EMO, EFA - NODE CONSTITUENT PROPERTIES
0.207963 13.140   ! EMO, EFA - NODE CONSTITUENT PROPERTIES
0.219325 12.018   ! EMO, EFA - NODE CONSTITUENT PROPERTIES
0.223196 11.634   ! EMO, EFA - NODE CONSTITUENT PROPERTIES
0.226924 11.263   ! EMO, EFA - NODE CONSTITUENT PROPERTIES
0.229005 11.061   ! EMO, EFA - NODE CONSTITUENT PROPERTIES
0.232286 10.944   ! EMO, EFA - NODE CONSTITUENT PROPERTIES
0.233053 10.940   ! EMO, EFA - NODE CONSTITUENT PROPERTIES
0.232506 10.932   ! EMO, EFA - NODE CONSTITUENT PROPERTIES
0.232053 10.927   ! EMO, EFA - NODE CONSTITUENT PROPERTIES
0.231607 10.921   ! EMO, EFA - NODE CONSTITUENT PROPERTIES
0.231166 10.916   ! EMO, EFA - NODE CONSTITUENT PROPERTIES
0.231166 10.916   ! EMO, EFA - NODE CONSTITUENT PROPERTIES
0.231166 10.916   ! EMO, EFA - NODE CONSTITUENT PROPERTIES
0.035398 136.740   ! EMO, EFA - NODE CONSTITUENT PROPERTIES
0.035398 136.740   ! EMO, EFA - NODE CONSTITUENT PROPERTIES
0.035398 136.740   ! EMO, EFA - NODE CONSTITUENT PROPERTIES
0.035812 137.498   ! EMO, EFA - NODE CONSTITUENT PROPERTIES
0.036335 138.414   ! EMO, EFA - NODE CONSTITUENT PROPERTIES
0.037085 139.658   ! EMO, EFA - NODE CONSTITUENT PROPERTIES
0.037632 140.518   ! EMO, EFA - NODE CONSTITUENT PROPERTIES
0.038096 141.197   ! EMO, EFA - NODE CONSTITUENT PROPERTIES
0.038498 141.524   ! EMO, EFA - NODE CONSTITUENT PROPERTIES
0.038858 141.450   ! EMO, EFA - NODE CONSTITUENT PROPERTIES
0.038907 141.225   ! EMO, EFA - NODE CONSTITUENT PROPERTIES
0.038976 140.910   ! EMO, EFA - NODE CONSTITUENT PROPERTIES
0.039050 140.596   ! EMO, EFA - NODE CONSTITUENT PROPERTIES