created on 2025-05-06 23:09                                     ! RUNDES                              - 32 CHARACTER ALPHANUMERIC RUN DESCRIPTION
EWN Feature Mesh                                                ! RUNID                               - 24 CHARACTER ALPANUMERIC RUN IDENTIFICATION
1                                                               ! NFOVER                              - NONFATAL ERROR OVERRIDE OPTION
1                                                               ! NABOUT                              - ABREVIATED OUTPUT OPTION PARAMETER
100                                                             ! NSCREEN                             - UNIT 6 OUTPUT OPTION PARAMETER
0                                                               ! IHOT                                - HOT START PARAMETER
2                                                               ! ICS                                 - COORDINATE SYSTEM SELECTION PARAMETER
511113                                                          ! IM                                  - MODEL SELECTION PARAMETER
1                                                               ! NOLIBF                              - BOTTOM FRICTION TERM SELECTION PARAM; before NWP==1, '2' was used
2                                                               ! NOLIFA                              - FINITE AMPLITUDE TERM SELECTION PARAMETER
1                                                               ! NOLICA                              - SPATIAL DERIVATIVE CONVECTIVE SELECTION PARAMETER
1                                                               ! NOLICAT                             - TIME DERIVATIVE CONVECTIVE TERM SELECTION PARAMETER
2                                                               ! NWP                                 - VARIABLE BOTTOM FRICTION AND LATERAL VISCOSITY OPTION PARAMETER; default 0
primitive_weighting_in_continuity_equation
mannings_n_at_sea_floor
1                                                               ! NCOR                                - VARIABLE CORIOLIS IN SPACE OPTION PARAMETER
1                                                               ! NTIP                                - TIDAL POTENTIAL OPTION PARAMETER
0                                                               ! NWS                                 - WIND STRESS AND BAROMETRIC PRESSURE OPTION PARAMETER
1                                                               ! NRAMP                               - RAMP FUNCTION OPTION
9.81                                                            ! G                                   - ACCELERATION DUE TO GRAVITY - DETERMINES UNITS
-3                                                              ! TAU0                                - WEIGHTING FACTOR IN GWCE; original, 0.005
2.414877                                                        ! DTDP                                - TIME STEP (IN SECONDS)
0                                                               ! STATIM                              - STARTING TIME (IN DAYS)
0                                                               ! REFTIM                              - REFERENCE TIME (IN DAYS)
15                                                              ! RNDAY                               - TOTAL LENGTH OF SIMULATION (IN DAYS)
15                                                              ! DRAMP                               - DURATION OF RAMP FUNCTION (IN DAYS)
0.5 0.5 0                                                       ! A00 B00 C00                         - TIME WEIGHTING FACTORS FOR THE GWCE EQUATION
0.01 0 0 0.01                                                   ! H0 NODEDRYMIN NODEWETRMP VELMIN    
-72.73802158104999 19.34715798645                               ! SLAM0 SFEA0                         - CENTER OF CPP PROJECTION (NOT USED IF ICS=1, NTIP=0, NCOR=0)
0.0025                                                          ! FFACTOR                            
-0.2                                                            ! smagorinsky coefficient             - LATERAL EDDY VISCOSITY COEFFICIENT; IGNORED IF NWP =1
0                                                               ! CORI                                - CORIOLIS PARAMETER - IGNORED IF NCOR = 1
8                                                               ! NTIF                                - NUMBER OF TIDAL POTENTIAL CONSTITUENTS BEING FORCED starting 2008082300
Q1
0.019256 6.49585E-05 0.695 0.820136 231.475
O1
0.100514 6.75977E-05 0.695 0.820136 338.263
P1
0.046843 7.25229E-05 0.706 1 262.301
K1
0.141565 7.29212E-05 0.736 0.890192 94.3132
N2
0.046398 0.00013788 0.693 1.0357 323.92
M2
0.242334 0.000140519 0.693 1.0357 70.7072
S2
0.112841 0.000145444 0.693 1 0
K2
0.030704 0.000145842 0.693 0.76031 9.2474
8
Q1
6.49585E-05 0.820136 231.475
O1
6.75977E-05 0.820136 338.263
P1
7.25229E-05 1 262.301
K1
7.29212E-05 0.890192 94.3132
N2
0.00013788 1.0357 323.92
M2
0.000140519 1.0357 70.7072
S2
0.000145444 1 0
K2
0.000145842 0.76031 9.2474
Q1
7.20044669e-03 2.21493909e+02
7.22611933e-03 2.21472725e+02
7.24892305e-03 2.21451541e+02
7.25025852e-03 2.21385141e+02
7.21723828e-03 2.21395960e+02
7.19505078e-03 2.21453925e+02
7.17604617e-03 2.21548222e+02
7.19646954e-03 2.21620589e+02
7.21689282e-03 2.21662547e+02
7.23257507e-03 2.21679719e+02
7.23826122e-03 2.21698692e+02
7.23375134e-03 2.21728035e+02
7.22924147e-03 2.21757379e+02
7.21928778e-03 2.21768631e+02
7.25194813e-03 2.21620786e+02
7.28556740e-03 2.21487631e+02
7.36664553e-03 2.21391535e+02
7.40846729e-03 2.21363236e+02
7.45028905e-03 2.21334937e+02
7.46796640e-03 2.21316958e+02
7.48561460e-03 2.21250065e+02
7.49905756e-03 2.21196122e+02
7.51250051e-03 2.21141893e+02
7.53200886e-03 2.21056557e+02
7.55151721e-03 2.20956375e+02
7.59999990e-03 2.20880301e+02
7.59999990e-03 2.20779984e+02
7.60382974e-03 2.20702545e+02
7.64005135e-03 2.20624321e+02
7.67515214e-03 2.20560524e+02
7.69999981e-03 2.20497753e+02
7.71185200e-03 2.20440278e+02
7.73806814e-03 2.20385677e+02
7.78201628e-03 2.20295947e+02
7.82596457e-03 2.20208812e+02
7.88060014e-03 2.20092748e+02
7.89482603e-03 2.19980723e+02
7.90000021e-03 2.19918512e+02
7.92277958e-03 2.19857338e+02
7.95899023e-03 2.19797392e+02
7.99520088e-03 2.19736132e+02
8.02144867e-03 2.19683689e+02
8.02494100e-03 2.19631728e+02
8.02687828e-03 2.19595021e+02
8.02881557e-03 2.19557840e+02
8.03199838e-03 2.19512235e+02
8.05925617e-03 2.19466626e+02
8.08227789e-03 2.19428834e+02
8.10529960e-03 2.19391042e+02
8.13404967e-03 2.19339420e+02
8.13436358e-03 2.19287799e+02
8.14387728e-03 2.19223156e+02
8.18403672e-03 2.19158514e+02
8.20164687e-03 2.19082650e+02
8.25169311e-03 2.19006789e+02
8.28366762e-03 2.18959621e+02
8.29999983e-03 2.18910884e+02
8.29999983e-03 2.18862157e+02
8.29999983e-03 2.18813430e+02
8.33319934e-03 2.18730000e+02
8.38718297e-03 2.18645402e+02
8.39999974e-03 2.18598266e+02
8.39999974e-03 2.18551128e+02
8.39999974e-03 2.18492750e+02
8.42949629e-03 2.18434377e+02
8.46880958e-03 2.18376557e+02
8.50000024e-03 2.18315292e+02
8.50000024e-03 2.18266922e+02
8.50000024e-03 2.18218552e+02
8.50000024e-03 2.18172013e+02
8.52893564e-03 2.18125474e+02
8.55860161e-03 2.18080716e+02
8.58826758e-03 2.18035957e+02
8.60000014e-03 2.17995399e+02
8.60000014e-03 2.17953666e+02
8.60000014e-03 2.17911939e+02
8.60000014e-03 2.17870212e+02
8.60874137e-03 2.17850606e+02
8.62136445e-03 2.17830611e+02
8.63398754e-03 2.17811064e+02
8.64661063e-03 2.17791716e+02
8.66223729e-03 2.17768519e+02
8.67786395e-03 2.17745321e+02
8.69349061e-03 2.17722124e+02
8.70911727e-03 2.17698927e+02
8.73512750e-03 2.17662411e+02
8.76113772e-03 2.17625902e+02
8.78714795e-03 2.17589393e+02
8.79090577e-03 2.17555609e+02
8.76985278e-03 2.17523445e+02
8.77301774e-03 2.17491282e+02
8.80294748e-03 2.17458824e+02
8.83287722e-03 2.17423669e+02
8.85696719e-03 2.17403107e+02
8.88105717e-03 2.17385224e+02
8.89991118e-03 2.17372896e+02
8.89999986e-03 2.17358691e+02
8.91501204e-03 2.17347702e+02
8.94939300e-03 2.17338652e+02
8.97828567e-03 2.17336688e+02
8.99999976e-03 2.17337526e+02
8.99999976e-03 2.17332622e+02
8.99999976e-03 2.17327718e+02
8.99999976e-03 2.17338025e+02
9.05977661e-03 2.17363662e+02
9.16029066e-03 2.17386137e+02
9.26629879e-03 2.17475672e+02
9.37213652e-03 2.17482296e+02
9.51967459e-03 2.17541815e+02
9.47516102e-03 2.16669576e+02
9.59999979e-03 2.17669998e+02
9.49999988e-03 2.15910004e+02
9.49999988e-03 2.15910004e+02
1.15004816e-02 1.84539378e+02
1.14850871e-02 1.84564350e+02
1.14627124e-02 1.84638616e+02
1.14593401e-02 1.84631372e+02
1.14559678e-02 1.84624128e+02
1.14245711e-02 1.84562875e+02
1.13894318e-02 1.84492398e+02
1.13523223e-02 1.84356648e+02
1.13338403e-02 1.84118443e+02
1.13050353e-02 1.83706713e+02
1.12375118e-02 1.83932237e+02
1.11907484e-02 1.84188621e+02
1.11439851e-02 1.84450738e+02
1.10739288e-02 1.84834405e+02
1.10038725e-02 1.85218072e+02
1.08986883e-02 1.85772915e+02
1.08316867e-02 1.86188391e+02
1.07329992e-02 1.86590077e+02
1.06259742e-02 1.87017511e+02
1.06040269e-02 1.87342849e+02
1.05820797e-02 1.87742039e+02
1.05557208e-02 1.88057580e+02
1.05293618e-02 1.88345803e+02
1.04774364e-02 1.88794385e+02
1.04255112e-02 1.89231948e+02
1.03696124e-02 1.89650957e+02
1.03137136e-02 1.90059031e+02
1.02686639e-02 1.90364014e+02
1.02553543e-02 1.90743775e+02
1.02313394e-02 1.91143830e+02
1.02400259e-02 1.91587137e+02
1.02514497e-02 1.91859693e+02
1.02628735e-02 1.92132250e+02
1.02704632e-02 1.92414930e+02
1.02780528e-02 1.92664809e+02
1.02831930e-02 1.92967786e+02
1.03190946e-02 1.93240000e+02
1.03756224e-02 1.93694292e+02
1.04274676e-02 1.94074789e+02
1.04724411e-02 1.94441499e+02
1.06055346e-02 1.94770539e+02
1.07103837e-02 1.95037216e+02
1.08365840e-02 1.95242921e+02
1.09208183e-02 1.95396734e+02
1.10099312e-02 1.95531031e+02
1.10634065e-02 1.95660016e+02
1.11143849e-02 1.95787752e+02
8.29999983e-03 2.30940002e+02
8.27326936e-03 2.32171390e+02
8.14911572e-03 2.32579851e+02
8.02496207e-03 2.32922658e+02
7.88587612e-03 2.33250050e+02
7.71536666e-03 2.33608730e+02
7.58896457e-03 2.33882341e+02
7.51198570e-03 2.34115221e+02
7.43935266e-03 2.34346840e+02
7.36671962e-03 2.34582791e+02
7.23410242e-03 2.34902940e+02
7.10148525e-03 2.35210021e+02
6.98148333e-03 2.35394166e+02
6.85081676e-03 2.35566564e+02
6.77257202e-03 2.35632365e+02
6.69432728e-03 2.35698165e+02
6.64235496e-03 2.35738122e+02
6.59038251e-03 2.35752636e+02
6.51710200e-03 2.35762779e+02
6.47191071e-03 2.35756069e+02
6.40832876e-03 2.35718932e+02
6.32755274e-03 2.35662570e+02
6.25740633e-03 2.35586353e+02
6.20969892e-03 2.35494426e+02
6.17261866e-03 2.35370212e+02
6.13553839e-03 2.35240177e+02
6.06862173e-03 2.35039678e+02
5.98938801e-03 2.34820706e+02
5.92177436e-03 2.34597575e+02
5.87690181e-03 2.34304391e+02
5.83904467e-03 2.34038799e+02
5.80228234e-03 2.33771109e+02
5.79802330e-03 2.33154600e+02
5.76579275e-03 2.32609451e+02
O1
4.16288996e-02 2.38653113e+02
4.17709025e-02 2.38537717e+02
4.18956918e-02 2.38426051e+02
4.19010337e-02 2.38244999e+02
4.18718996e-02 2.38215053e+02
4.18911072e-02 2.38253181e+02
4.18572776e-02 2.38343417e+02
4.20183478e-02 2.38372665e+02
4.20949558e-02 2.38391775e+02
4.21628728e-02 2.38384979e+02
4.22512808e-02 2.38376786e+02
4.23709017e-02 2.38373629e+02
4.24905227e-02 2.38370473e+02
4.26994270e-02 2.38334561e+02
4.29509437e-02 2.38254354e+02
4.32099329e-02 2.38172282e+02
4.34908498e-02 2.38064267e+02
4.36211911e-02 2.38009413e+02
4.37515325e-02 2.37954560e+02
4.39031138e-02 2.37886919e+02
4.40546952e-02 2.37804598e+02
4.41739997e-02 2.37738729e+02
4.43087035e-02 2.37675071e+02
4.45301023e-02 2.37575624e+02
4.47020124e-02 2.37471223e+02
4.48778278e-02 2.37377640e+02
4.50556705e-02 2.37289113e+02
4.51910738e-02 2.37220763e+02
4.53264770e-02 2.37151067e+02
4.54409275e-02 2.37092456e+02
4.55553780e-02 2.37034872e+02
4.56674747e-02 2.36979087e+02
4.57795707e-02 2.36921866e+02
4.59256066e-02 2.36831328e+02
4.60770167e-02 2.36745444e+02
4.63067469e-02 2.36630031e+02
4.65364790e-02 2.36514619e+02
4.66652546e-02 2.36450092e+02
4.67914870e-02 2.36386604e+02
4.69154779e-02 2.36324063e+02
4.70394694e-02 2.36261521e+02
4.71454896e-02 2.36207423e+02
4.72515099e-02 2.36153323e+02
4.73260893e-02 2.36114903e+02
4.73959282e-02 2.36076483e+02
4.74569526e-02 2.36031221e+02
4.75420526e-02 2.35983553e+02
4.76127126e-02 2.35943778e+02
4.76833723e-02 2.35904004e+02
4.77768041e-02 2.35849307e+02
4.78418005e-02 2.35794610e+02
4.79316328e-02 2.35725472e+02
4.80521102e-02 2.35656335e+02
4.81900730e-02 2.35574065e+02
4.83059133e-02 2.35491791e+02
4.83951932e-02 2.35440087e+02
4.84688303e-02 2.35386822e+02
4.85235468e-02 2.35333151e+02
4.85782632e-02 2.35279479e+02
4.87000285e-02 2.35190093e+02
4.88425774e-02 2.35102561e+02
4.89223111e-02 2.35051659e+02
4.90020453e-02 2.35001703e+02
4.91010574e-02 2.34939197e+02
4.91705725e-02 2.34876696e+02
4.92254586e-02 2.34814126e+02
4.92884671e-02 2.34748113e+02
4.93589501e-02 2.34695597e+02
4.94294330e-02 2.34643081e+02
4.94969959e-02 2.34592052e+02
4.95467468e-02 2.34543916e+02
4.95939349e-02 2.34497266e+02
4.96411231e-02 2.34450615e+02
4.96978698e-02 2.34407791e+02
4.97639273e-02 2.34363794e+02
4.97930339e-02 2.34319797e+02
4.98221405e-02 2.34275800e+02
4.98431691e-02 2.34256558e+02
4.98680797e-02 2.34233939e+02
4.98929900e-02 2.34212217e+02
4.99179003e-02 2.34190892e+02
4.99475764e-02 2.34164958e+02
4.99772526e-02 2.34139023e+02
5.00069287e-02 2.34113089e+02
5.00274874e-02 2.34088065e+02
5.00476468e-02 2.34048783e+02
5.01061788e-02 2.34005672e+02
5.01682796e-02 2.33962205e+02
5.02081279e-02 2.33920962e+02
5.02258814e-02 2.33877946e+02
5.02678534e-02 2.33832506e+02
5.03336433e-02 2.33784387e+02
5.03724502e-02 2.33736273e+02
5.04018686e-02 2.33698818e+02
5.04312866e-02 2.33661362e+02
5.04534760e-02 2.33632632e+02
5.04944302e-02 2.33605774e+02
5.05189019e-02 2.33578480e+02
5.05240052e-02 2.33549253e+02
5.05283042e-02 2.33514084e+02
5.05334769e-02 2.33479089e+02
5.05615418e-02 2.33444353e+02
5.05896068e-02 2.33409617e+02
5.06328067e-02 2.33372015e+02
5.06307761e-02 2.33335669e+02
5.06178355e-02 2.33282855e+02
5.05994007e-02 2.33232186e+02
5.05724134e-02 2.33197700e+02
5.05454261e-02 2.33154872e+02
5.03187041e-02 2.33251362e+02
5.05000019e-02 2.33149994e+02
5.05999994e-02 2.33020004e+02
5.05999994e-02 2.33020004e+02
5.99289830e-02 2.10423770e+02
5.99024092e-02 2.10406294e+02
5.98358749e-02 2.10418883e+02
5.97565672e-02 2.10422558e+02
5.96772595e-02 2.10426233e+02
5.96010367e-02 2.10462209e+02
5.95161172e-02 2.10507775e+02
5.93709415e-02 2.10586085e+02
5.92071387e-02 2.10679296e+02
5.89314023e-02 2.10836016e+02
5.86407165e-02 2.10910345e+02
5.85014501e-02 2.10921792e+02
5.83577730e-02 2.10936768e+02
5.81393816e-02 2.10961171e+02
5.79209902e-02 2.10985575e+02
5.75856846e-02 2.11026845e+02
5.73076526e-02 2.11123484e+02
5.70985656e-02 2.11234487e+02
5.68916077e-02 2.11355788e+02
5.67271874e-02 2.11494100e+02
5.65073807e-02 2.11654567e+02
5.63193931e-02 2.11824296e+02
5.61484782e-02 2.11995732e+02
5.58399757e-02 2.12301395e+02
5.55193786e-02 2.12632618e+02
5.52254145e-02 2.12980381e+02
5.49728813e-02 2.13353685e+02
5.47851824e-02 2.13631156e+02
5.45813538e-02 2.13996099e+02
5.44389742e-02 2.14370650e+02
5.43093060e-02 2.14821341e+02
5.42338524e-02 2.15093284e+02
5.41583989e-02 2.15365228e+02
5.41189346e-02 2.15675777e+02
5.40891105e-02 2.15952156e+02
5.40385158e-02 2.16283719e+02
5.41109665e-02 2.16609132e+02
5.42212439e-02 2.17149293e+02
5.44192354e-02 2.17665606e+02
5.45738713e-02 2.18168240e+02
5.48812628e-02 2.18656311e+02
5.50979063e-02 2.19053438e+02
5.55066691e-02 2.19497255e+02
5.58769978e-02 2.19847153e+02
5.62717201e-02 2.20139972e+02
5.65000450e-02 2.20231103e+02
5.67192149e-02 2.20322650e+02
3.61999989e-02 2.52880005e+02
3.58819569e-02 2.53459747e+02
3.56823377e-02 2.53425554e+02
3.54827184e-02 2.53401214e+02
3.53111920e-02 2.53362740e+02
3.51396655e-02 2.53324077e+02
3.49952619e-02 2.53288393e+02
3.48508583e-02 2.53253900e+02
3.47086140e-02 2.53207052e+02
3.45663697e-02 2.53158347e+02
3.43112494e-02 2.53050575e+02
3.40784863e-02 2.52934702e+02
3.38933229e-02 2.52798684e+02
3.36942322e-02 2.52661553e+02
3.35558451e-02 2.52555328e+02
3.34174579e-02 2.52449104e+02
3.33260997e-02 2.52375003e+02
3.32559404e-02 2.52288184e+02
3.31593145e-02 2.52156505e+02
3.30626886e-02 2.52027633e+02
3.29503063e-02 2.51845446e+02
3.28227377e-02 2.51647784e+02
3.26901930e-02 2.51467455e+02
3.26025263e-02 2.51264685e+02
3.25386961e-02 2.51044913e+02
3.24748659e-02 2.50825141e+02
3.23821918e-02 2.50534354e+02
3.22772007e-02 2.50230015e+02
3.21877455e-02 2.49919153e+02
3.21210312e-02 2.49562789e+02
3.20679572e-02 2.49243949e+02
3.20182605e-02 2.48923338e+02
3.19911060e-02 2.48236389e+02
3.20387359e-02 2.47507249e+02
P1
2.31093374e-02 2.34613958e+02
2.31841503e-02 2.34622883e+02
2.32489221e-02 2.34630804e+02
2.32502576e-02 2.34617549e+02
2.32515930e-02 2.34676351e+02
2.32403517e-02 2.34758849e+02
2.32010004e-02 2.34855456e+02
2.32395321e-02 2.34954416e+02
2.32611713e-02 2.35029727e+02
2.32738443e-02 2.35081862e+02
2.32865173e-02 2.35138944e+02
2.33011924e-02 2.35215904e+02
2.33158676e-02 2.35292864e+02
2.33593556e-02 2.35401876e+02
2.35014445e-02 2.35376861e+02
2.36422677e-02 2.35375696e+02
2.37575587e-02 2.35408568e+02
2.38042565e-02 2.35439398e+02
2.38509543e-02 2.35470228e+02
2.39355410e-02 2.35512847e+02
2.39712302e-02 2.35516332e+02
2.39981161e-02 2.35518939e+02
2.40529028e-02 2.35520292e+02
2.41527140e-02 2.35522466e+02
2.42030353e-02 2.35514747e+02
2.42709396e-02 2.35522757e+02
2.43408711e-02 2.35511572e+02
2.43974524e-02 2.35500892e+02
2.44801035e-02 2.35473226e+02
2.45503051e-02 2.35450482e+02
2.46102535e-02 2.35428766e+02
2.46329795e-02 2.35403768e+02
2.46413416e-02 2.35371589e+02
2.46897323e-02 2.35332594e+02
2.47587134e-02 2.35309619e+02
2.48495161e-02 2.35285445e+02
2.49403189e-02 2.35260252e+02
2.49892654e-02 2.35245315e+02
2.50382119e-02 2.35237725e+02
2.50846625e-02 2.35234101e+02
2.51179561e-02 2.35227846e+02
2.51484967e-02 2.35223002e+02
2.51838365e-02 2.35219120e+02
2.52086961e-02 2.35216442e+02
2.52335557e-02 2.35213289e+02
2.52624765e-02 2.35207503e+02
2.52913973e-02 2.35201718e+02
2.53152162e-02 2.35196953e+02
2.53390350e-02 2.35191659e+02
2.53713762e-02 2.35181988e+02
2.54037174e-02 2.35172317e+02
2.54438769e-02 2.35160174e+02
2.54840363e-02 2.35148030e+02
2.55305728e-02 2.35130828e+02
2.55771093e-02 2.35114241e+02
2.56057615e-02 2.35102118e+02
2.56344138e-02 2.35091558e+02
2.56617721e-02 2.35082909e+02
2.56891303e-02 2.35074259e+02
2.57334136e-02 2.35056660e+02
2.57776969e-02 2.35037972e+02
2.58019267e-02 2.35027576e+02
2.58261566e-02 2.35017182e+02
2.58557208e-02 2.35004327e+02
2.58852850e-02 2.34991467e+02
2.59127281e-02 2.34976812e+02
2.59401711e-02 2.34959528e+02
2.59602117e-02 2.34946399e+02
2.59802523e-02 2.34933270e+02
2.59990322e-02 2.34920512e+02
2.59999990e-02 2.34906643e+02
2.59999990e-02 2.34893025e+02
2.59999990e-02 2.34879406e+02
2.60152291e-02 2.34867169e+02
2.60397698e-02 2.34854690e+02
2.60273604e-02 2.34838513e+02
2.60149511e-02 2.34822336e+02
2.60172128e-02 2.34814761e+02
2.60233564e-02 2.34807186e+02
2.60295000e-02 2.34800060e+02
2.60356436e-02 2.34793133e+02
2.60426683e-02 2.34784616e+02
2.60496931e-02 2.34776099e+02
2.60567178e-02 2.34767582e+02
2.60637426e-02 2.34759066e+02
2.60738227e-02 2.34745055e+02
2.60839028e-02 2.34727203e+02
2.60939829e-02 2.34708994e+02
2.61131572e-02 2.34691698e+02
2.61430869e-02 2.34672856e+02
2.61487987e-02 2.34651591e+02
2.61306932e-02 2.34628236e+02
2.61395700e-02 2.34610279e+02
2.61448985e-02 2.34594618e+02
2.61502269e-02 2.34578287e+02
2.61535627e-02 2.34565421e+02
2.61568989e-02 2.34548802e+02
2.61594506e-02 2.34532436e+02
2.61620019e-02 2.34516069e+02
2.61641512e-02 2.34494542e+02
2.61663007e-02 2.34472561e+02
2.61671753e-02 2.34451683e+02
2.61680499e-02 2.34430805e+02
2.61830418e-02 2.34406905e+02
2.61653863e-02 2.34378287e+02
2.61602894e-02 2.34332449e+02
2.61416993e-02 2.34284282e+02
2.60880221e-02 2.34253180e+02
2.60343448e-02 2.34212936e+02
2.60092563e-02 2.34318997e+02
2.59999990e-02 2.34190002e+02
2.60999990e-02 2.34210007e+02
2.60999990e-02 2.34210007e+02
2.80524884e-02 2.13835817e+02
2.80632300e-02 2.13797028e+02
2.80590949e-02 2.13791683e+02
2.80314185e-02 2.13777878e+02
2.80037420e-02 2.13764073e+02
2.79999995e-02 2.13756662e+02
2.79894315e-02 2.13754600e+02
2.79388413e-02 2.13761816e+02
2.78696236e-02 2.13763445e+02
2.77535676e-02 2.13764757e+02
2.76375116e-02 2.13826453e+02
2.75880432e-02 2.13873034e+02
2.75341644e-02 2.13929759e+02
2.74522679e-02 2.14016392e+02
2.73703713e-02 2.14103025e+02
2.72446321e-02 2.14236986e+02
2.71379842e-02 2.14418676e+02
2.70329994e-02 2.14625214e+02
2.69259748e-02 2.14847462e+02
2.69040274e-02 2.15018658e+02
2.68636176e-02 2.15237858e+02
2.68077096e-02 2.15424128e+02
2.67518015e-02 2.15596740e+02
2.67046710e-02 2.15898169e+02
2.67024180e-02 2.16210653e+02
2.66696135e-02 2.16533964e+02
2.66320524e-02 2.16860264e+02
2.66262736e-02 2.17082693e+02
2.66204948e-02 2.17366675e+02
2.66039145e-02 2.17636864e+02
2.66327459e-02 2.17940866e+02
2.66830247e-02 2.18093189e+02
2.67333035e-02 2.18245513e+02
2.67773092e-02 2.18422493e+02
2.68213149e-02 2.18552303e+02
2.68663164e-02 2.18717727e+02
2.69728406e-02 2.18855472e+02
2.71440116e-02 2.19102621e+02
2.73566985e-02 2.19335214e+02
2.75384744e-02 2.19597220e+02
2.78225369e-02 2.19818594e+02
2.80371760e-02 2.20018997e+02
2.83707672e-02 2.20119071e+02
2.85976673e-02 2.20232357e+02
2.88245674e-02 2.20316371e+02
2.89391625e-02 2.20382964e+02
2.90504286e-02 2.20450889e+02
1.99000001e-02 2.44830002e+02
1.97745653e-02 2.45108425e+02
1.97029946e-02 2.45103219e+02
1.96314238e-02 2.45104581e+02
1.95691732e-02 2.45101805e+02
1.94953710e-02 2.45102497e+02
1.94338533e-02 2.45102894e+02
1.93723356e-02 2.45096811e+02
1.93122370e-02 2.45085708e+02
1.92521384e-02 2.45074604e+02
1.91456905e-02 2.45045334e+02
1.90392424e-02 2.45005731e+02
1.89466607e-02 2.44936315e+02
1.88680060e-02 2.44860007e+02
1.88469866e-02 2.44781291e+02
1.88259673e-02 2.44702574e+02
1.88125681e-02 2.44648208e+02
1.87779705e-02 2.44598078e+02
1.87296576e-02 2.44522460e+02
1.86813446e-02 2.44429994e+02
1.86451868e-02 2.44307284e+02
1.86262231e-02 2.44184571e+02
1.86113185e-02 2.44073472e+02
1.85739749e-02 2.43951156e+02
1.85279780e-02 2.43823023e+02
1.84819811e-02 2.43695859e+02
1.84567853e-02 2.43521697e+02
1.84439065e-02 2.43336452e+02
1.84327700e-02 2.43148274e+02
1.83842572e-02 2.42934741e+02
1.83438639e-02 2.42744426e+02
1.83068480e-02 2.42550496e+02
1.82980239e-02 2.42137746e+02
1.83171713e-02 2.41751423e+02
K1
7.16689091e-02 2.37095871e+02
7.18628548e-02 2.37068026e+02
7.20252422e-02 2.37037887e+02
7.19174624e-02 2.36939095e+02
7.17923256e-02 2.36962180e+02
7.17668625e-02 2.37026422e+02
7.16257764e-02 2.37111351e+02
7.17548511e-02 2.37194161e+02
7.17825706e-02 2.37249945e+02
7.18279553e-02 2.37285560e+02
7.19143210e-02 2.37324123e+02
7.20395958e-02 2.37375472e+02
7.21648706e-02 2.37426822e+02
7.23720920e-02 2.37490566e+02
7.26219291e-02 2.37534002e+02
7.28735760e-02 2.37583089e+02
7.32009514e-02 2.37608688e+02
7.33517333e-02 2.37616957e+02
7.35025151e-02 2.37625226e+02
7.36437298e-02 2.37637578e+02
7.38338420e-02 2.37635256e+02
7.39808743e-02 2.37632821e+02
7.41308056e-02 2.37630384e+02
7.43694448e-02 2.37625801e+02
7.45585928e-02 2.37616271e+02
7.47118505e-02 2.37609124e+02
7.49156218e-02 2.37597122e+02
7.50668304e-02 2.37587444e+02
7.52117153e-02 2.37578403e+02
7.53276542e-02 2.37570768e+02
7.54333402e-02 2.37562108e+02
7.55215812e-02 2.37551858e+02
7.56241858e-02 2.37543042e+02
7.57871810e-02 2.37527963e+02
7.59501761e-02 2.37515483e+02
7.61602333e-02 2.37500397e+02
7.63702905e-02 2.37484283e+02
7.64810740e-02 2.37474238e+02
7.65918574e-02 2.37466988e+02
7.66949985e-02 2.37460768e+02
7.67849824e-02 2.37453234e+02
7.68613395e-02 2.37444026e+02
7.69424960e-02 2.37434822e+02
7.69980270e-02 2.37428139e+02
7.70582987e-02 2.37421456e+02
7.71483876e-02 2.37413445e+02
7.72384753e-02 2.37405434e+02
7.73115256e-02 2.37398608e+02
7.73792765e-02 2.37391781e+02
7.74449007e-02 2.37382532e+02
7.75105248e-02 2.37376126e+02
7.75879530e-02 2.37366852e+02
7.76653826e-02 2.37354516e+02
7.77479271e-02 2.37339502e+02
7.78567468e-02 2.37324489e+02
7.79393807e-02 2.37314897e+02
7.80063726e-02 2.37305305e+02
7.80522320e-02 2.37295769e+02
7.80980914e-02 2.37286234e+02
7.82004577e-02 2.37270061e+02
7.83141226e-02 2.37253845e+02
7.83707977e-02 2.37242618e+02
7.84051699e-02 2.37230111e+02
7.84436610e-02 2.37214161e+02
7.84821521e-02 2.37201154e+02
7.85381877e-02 2.37186867e+02
7.86123932e-02 2.37169953e+02
7.86421122e-02 2.37156758e+02
7.86718312e-02 2.37143564e+02
7.86981667e-02 2.37130442e+02
7.87423163e-02 2.37115536e+02
7.87827386e-02 2.37100702e+02
7.88231609e-02 2.37085868e+02
7.88391817e-02 2.37072386e+02
7.88458916e-02 2.37058662e+02
7.88895506e-02 2.37041245e+02
7.89332097e-02 2.37023828e+02
7.89513713e-02 2.37016480e+02
7.89506994e-02 2.37009521e+02
7.89545142e-02 2.37002561e+02
7.89603220e-02 2.36995602e+02
7.89657698e-02 2.36986928e+02
7.89712176e-02 2.36978255e+02
7.89766654e-02 2.36969581e+02
7.89912307e-02 2.36959996e+02
7.90214720e-02 2.36942799e+02
7.90517114e-02 2.36925595e+02
7.90819507e-02 2.36908391e+02
7.90990326e-02 2.36889875e+02
7.90957336e-02 2.36866823e+02
7.90924346e-02 2.36843770e+02
7.90920831e-02 2.36820717e+02
7.91187131e-02 2.36797660e+02
7.91346984e-02 2.36778920e+02
7.91506837e-02 2.36760180e+02
7.91606909e-02 2.36745430e+02
7.91706989e-02 2.36732558e+02
7.91783540e-02 2.36719886e+02
7.91860082e-02 2.36707211e+02
7.91924563e-02 2.36691611e+02
7.91980309e-02 2.36676013e+02
7.91743402e-02 2.36657682e+02
7.91506494e-02 2.36639351e+02
7.91171147e-02 2.36618543e+02
7.91433566e-02 2.36597735e+02
7.91123402e-02 2.36569584e+02
7.90410988e-02 2.36541768e+02
7.89604336e-02 2.36524342e+02
7.88797703e-02 2.36506923e+02
7.86060954e-02 2.36552495e+02
7.88000011e-02 2.36500000e+02
7.90000010e-02 2.36490005e+02
7.90000010e-02 2.36490005e+02
8.14429356e-02 2.11041915e+02
8.13874999e-02 2.11012975e+02
8.12985908e-02 2.11015431e+02
8.12159102e-02 2.11009791e+02
8.11332297e-02 2.11004150e+02
8.10392726e-02 2.11015926e+02
8.09347473e-02 2.11036476e+02
8.07574621e-02 2.11085510e+02
8.05429226e-02 2.11143855e+02
8.01799339e-02 2.11244192e+02
7.99313839e-02 2.11312133e+02
7.98453144e-02 2.11339540e+02
7.97592451e-02 2.11371357e+02
7.96263692e-02 2.11421974e+02
7.94934932e-02 2.11472590e+02
7.92847309e-02 2.11555532e+02
7.90950595e-02 2.11667112e+02
7.88985671e-02 2.11789217e+02
7.86937374e-02 2.11920137e+02
7.85739849e-02 2.12051058e+02
7.84173070e-02 2.12209674e+02
7.82674058e-02 2.12372947e+02
7.81260415e-02 2.12534513e+02
7.78944439e-02 2.12822987e+02
7.76731888e-02 2.13129595e+02
7.74479956e-02 2.13452483e+02
7.72411406e-02 2.13789839e+02
7.70935062e-02 2.14038051e+02
7.69562784e-02 2.14355726e+02
7.68527842e-02 2.14684645e+02
7.67947022e-02 2.15062085e+02
7.67779191e-02 2.15288928e+02
7.67611360e-02 2.15515771e+02
7.67818544e-02 2.15766126e+02
7.68122130e-02 2.15989046e+02
7.68327738e-02 2.16260085e+02
7.69763801e-02 2.16506518e+02
7.72024914e-02 2.16920214e+02
7.75116344e-02 2.17298010e+02
7.77769486e-02 2.17672765e+02
7.82326687e-02 2.18003533e+02
7.85739274e-02 2.18279410e+02
7.90615659e-02 2.18574217e+02
7.94751498e-02 2.18806796e+02
7.99228848e-02 2.18990101e+02
8.02216694e-02 2.19035300e+02
8.05096345e-02 2.19081997e+02
6.07999992e-02 2.43660004e+02
6.04326051e-02 2.43929517e+02
6.02829281e-02 2.43882931e+02
6.01660793e-02 2.43842912e+02
6.00673374e-02 2.43797759e+02
5.99685945e-02 2.43749786e+02
5.98870013e-02 2.43708482e+02
5.97781332e-02 2.43668877e+02
5.96833085e-02 2.43623977e+02
5.95946709e-02 2.43578457e+02
5.94400570e-02 2.43490959e+02
5.92854433e-02 2.43403033e+02
5.91537634e-02 2.43303562e+02
5.90220841e-02 2.43202373e+02
5.89479303e-02 2.43132416e+02
5.88737764e-02 2.43062459e+02
5.88254588e-02 2.43014304e+02
5.87983390e-02 2.42964028e+02
5.87633206e-02 2.42888896e+02
5.87283022e-02 2.42810958e+02
5.86903747e-02 2.42705696e+02
5.86372604e-02 2.42593756e+02
5.85698930e-02 2.42490225e+02
5.85474036e-02 2.42379962e+02
5.85214357e-02 2.42258286e+02
5.84857692e-02 2.42134672e+02
5.84765796e-02 2.41975802e+02
5.84797073e-02 2.41810774e+02
5.84769669e-02 2.41643814e+02
5.84514849e-02 2.41451501e+02
5.84337320e-02 2.41280588e+02
5.84250163e-02 2.41108451e+02
5.85201733e-02 2.40739268e+02
5.86901142e-02 2.40357872e+02
N2
2.10013309e-02 7.86649287e+01
2.09445672e-02 7.89898345e+01
2.08935414e-02 7.92437345e+01
2.08553893e-02 7.88136653e+01
2.07828815e-02 7.84589613e+01
2.07447984e-02 7.82875594e+01
2.07175874e-02 7.78951176e+01
2.06108416e-02 7.78022705e+01
2.05209883e-02 7.76046892e+01
2.04522408e-02 7.74966318e+01
2.03834932e-02 7.74143586e+01
2.02977335e-02 7.72857826e+01
2.02119737e-02 7.71572066e+01
2.00569434e-02 7.70782601e+01
1.98592991e-02 7.72689101e+01
1.96502381e-02 7.73751343e+01
1.94384367e-02 7.78836012e+01
1.93441028e-02 7.80930260e+01
1.92497688e-02 7.83024507e+01
1.91371107e-02 7.85260792e+01
1.90244526e-02 7.87741652e+01
1.89328756e-02 7.89532965e+01
1.88537990e-02 7.90887874e+01
1.87299405e-02 7.92780147e+01
1.86060819e-02 7.95464241e+01
1.84921458e-02 7.97537440e+01
1.83782096e-02 8.00406616e+01
1.82846810e-02 8.02446506e+01
1.81650824e-02 8.04537674e+01
1.80612690e-02 8.06077216e+01
1.79574556e-02 8.07565496e+01
1.78644430e-02 8.08377058e+01
1.77857946e-02 8.08700240e+01
1.76539502e-02 8.08819237e+01
1.75221058e-02 8.07869219e+01
1.73350523e-02 8.05287147e+01
1.70973316e-02 7.96578382e+01
1.69543784e-02 7.90376902e+01
1.68926535e-02 7.96494394e+01
1.68666824e-02 8.07992646e+01
1.68275544e-02 8.17267361e+01
1.67888001e-02 8.21589173e+01
1.67320898e-02 8.27192558e+01
1.66901197e-02 8.31115535e+01
1.66481496e-02 8.34749346e+01
1.65984798e-02 8.37664176e+01
1.65728851e-02 8.41132740e+01
1.65506605e-02 8.43960216e+01
1.65284359e-02 8.46639301e+01
1.64934453e-02 8.49588350e+01
1.64300186e-02 8.52935503e+01
1.63563222e-02 8.56949432e+01
1.63132715e-02 8.60748841e+01
1.62272794e-02 8.64639301e+01