created on 2024-09-04 17:25                                     ! RUNDES        
eastcoast_95d_ll_select.grd                                     ! RUNID         
1                                                               ! NFOVER        
1                                                               ! NABOUT        
100                                                             ! NSCREEN       
0                                                               ! IHOT          
2                                                               ! ICS           
511113                                                          ! IM            
1                                                               ! NOLIBF        
2                                                               ! NOLIFA        
1                                                               ! NOLICA        
1                                                               ! NOLICAT       
2                                                               ! NWP           
primitive_weighting_in_continuity_equation                                      
mannings_n_at_sea_floor                                                         
1                                                               ! NCOR          
1                                                               ! NTIP          
8                                                               ! NWS           
1                                                               ! NRAMP         
9.81                                                            ! G             
-3                                                              ! TAU0          
80.142686                                                       ! DTDP          
0                                                               ! STATIM        
0                                                               ! REFTIM        
2020 08 20 18 1 0.7 1                                           ! IREFYR IREFMO 
8                                                              ! RNDAY          
15                                                              ! DRAMP         
0.5 0.5 0                                                       ! A00 B00 C00   
0.01 0 0 0.01                                                   ! H0 NODEDRYMIN 
-76.725105 26.58329                                             ! SLAM0 SFEA0   
0.0025                                                          ! FFACTOR       
-0.2                                                            ! smagorinsky co
0                                                               ! CORI          
8                                                               ! NTIF          
Q1                                                                              
0.019256 6.49585E-05 0.695 1.03332 190.975                                      
O1                                                                              
0.100514 6.75977E-05 0.695 1.03332 219.176                                      
P1                                                                              
0.046843 7.25229E-05 0.706 1 53.1342                                            
K1                                                                              
0.141565 7.29212E-05 0.736 1.02074 118.15                                       
N2                                                                              
0.046398 0.00013788 0.693 0.998141 305.241                                      
M2                                                                              
0.242334 0.000140519 0.693 0.998141 333.443                                     
S2                                                                              
0.112841 0.000145444 0.693 1 180                                                
K2                                                                              
0.030704 0.000145842 0.693 1.03171 56.0484                                      
8                                                                               
Q1                                                                              
6.49585E-05 1.03332 190.975                                                     
O1                                                                              
6.75977E-05 1.03332 219.176                                                     
P1                                                                              
7.25229E-05 1 53.1342                                                           
K1                                                                              
7.29212E-05 1.02074 118.15                                                      
N2                                                                              
0.00013788 0.998141 305.241                                                     
M2                                                                              
0.000140519 0.998141 333.443                                                    
S2                                                                              
0.000145444 1 180                                                               
K2                                                                              
0.000145842 1.03171 56.0484                                                     
Q1                                                                              
O1                                                                              
P1                                                                              
K1                                                                              
N2                                                                              
M2                                                                              
S2                                                                              
K2                                                                              
110                                                             ! ANGINN        
           0   0.0000000000000000        0.0000000000000000                0
       0                                                                ! NSTAM 
           0   0.0000000000000000        0.0000000000000000                0
       0                                                                ! NSTAE 
           0   0.0000000000000000        0.0000000000000000                0
       0                                                                ! NSTAV 
          -3   0.0000000000000000        15.000000000000000               20
          -3   0.0000000000000000        15.000000000000000               20
          -3   0.0000000000000000        15.000000000000000               20
0                                                               ! NFREQ         
0 0 0 0                                                         ! THAS THAF NHAI
0 0 0 0                                                         ! NHASE NHASV NH
5 16171                                                         ! NHSTAR NHSINC 
1 0 1E-08 25                                                    ! ITITER ISLDIA 
 ! NCPROJ
 ! NCINST
 ! NCSOUR
 ! NCHIST
 ! NCREF
 ! NCCOM
 ! NCHOST
 ! NCONV
 ! NCCONT
 2020-07-13 18:00                                                ! NCDATE
 ! -- Begin Met Control Namelist --
 &metControl 
     WindDragLimit=   2.5000000000000001E-003 ,
     DragLawString='default',
     outputWindDrag= F ,
     rhoAir=   1.2929999999999999      ,
     invertedBarometerOnElevationBoundary= F ,
     nPowellSearchDomains=          -1
 /
 ! -- End Met Control Namelist --
